<?xml version="1.0" encoding="UTF-8"?>

<!-- generated on 2025-04-05 20:45:40.518903 by randomTrips.py v1_22_0+0002-63e50f52594
<configuration>
    <net-file value="additional_data_collector/data_collector/sumo_config/holon.net.xml"/>
    <route-file value="additional_data_collector/data_collector/sumo_config/holon_evening.trips.xml"/>
    <validate value="True"/>
    <begin value="2400.0"/>
</configuration>
-->

<!-- generated on 2025-04-05 20:45:40 by Eclipse SUMO duarouter Version 1.22.0
<duarouterConfiguration xmlns:xsi="http://www.w3.org/2001/XMLSchema-instance" xsi:noNamespaceSchemaLocation="http://sumo.dlr.de/xsd/duarouterConfiguration.xsd">

    <input>
        <net-file value="additional_data_collector/data_collector/sumo_config/holon.net.xml"/>
        <route-files value="trips.trips.xml"/>
    </input>

    <output>
        <output-file value="trips.trips.xml.tmp"/>
        <alternatives-output value="NUL"/>
        <write-trips value="true"/>
    </output>

    <time>
        <begin value="2400.0"/>
        <end value="3600.0"/>
    </time>

    <report>
        <no-warnings value="true"/>
        <ignore-errors value="true"/>
        <no-step-log value="true"/>
    </report>

</duarouterConfiguration>
-->

<routes xmlns:xsi="http://www.w3.org/2001/XMLSchema-instance" xsi:noNamespaceSchemaLocation="http://sumo.dlr.de/xsd/routes_file.xsd">
    <trip id="0" depart="2400.00" from="51406031#0" to="-330712035#1"/>
    <trip id="1" depart="2401.00" from="118761083" to="109805922#16"/>
    <trip id="2" depart="2402.00" from="51480630#1" to="51406035#14"/>
    <trip id="3" depart="2403.00" from="861275128#5" to="-51406025#0"/>
    <trip id="4" depart="2404.00" from="28536320#1" to="-50823041#2"/>
    <trip id="5" depart="2405.00" from="109805922#17" to="50823041#4"/>
    <trip id="6" depart="2406.00" from="-50823041#1" to="-861292745#1"/>
    <trip id="7" depart="2407.00" from="51406031#6" to="51325619#3"/>
    <trip id="8" depart="2408.00" from="109805922#18" to="51405896#2"/>
    <trip id="9" depart="2409.00" from="709861225#2" to="-182916581#0"/>
    <trip id="10" depart="2410.00" from="709861225#0" to="51406510#2"/>
    <trip id="11" depart="2411.00" from="182916583" to="-861288928#1"/>
    <trip id="12" depart="2412.00" from="861292745#1" to="182823415#0"/>
    <trip id="13" depart="2413.00" from="-861124487#0" to="-51406026#2"/>
    <trip id="14" depart="2414.00" from="861124736" to="51406025#2"/>
    <trip id="15" depart="2415.00" from="709861225#1" to="51480630#3"/>
    <trip id="17" depart="2417.00" from="229913531#8" to="51405762"/>
    <trip id="18" depart="2418.00" from="861124498#0" to="51406030#2"/>
    <trip id="19" depart="2419.00" from="861275119#4" to="51405774#1"/>
    <trip id="20" depart="2420.00" from="51406035#7" to="-50848484#0"/>
    <trip id="21" depart="2421.00" from="109805922#5" to="118874856#1"/>
    <trip id="22" depart="2422.00" from="-51406026#2" to="109805922#4"/>
    <trip id="23" depart="2423.00" from="-861275119#2" to="118761091#0"/>
    <trip id="25" depart="2425.00" from="229913531#3" to="109805916"/>
    <trip id="26" depart="2426.00" from="118761072#1" to="861288933#1"/>
    <trip id="27" depart="2427.00" from="51406031#4" to="51406026#3"/>
    <trip id="28" depart="2428.00" from="-861288930#5" to="51480630#2"/>
    <trip id="31" depart="2431.00" from="51405763#0" to="51406035#4"/>
    <trip id="32" depart="2432.00" from="861124506" to="709861213"/>
    <trip id="33" depart="2433.00" from="109805922#6" to="-50823041#3"/>
    <trip id="34" depart="2434.00" from="1227518036#1" to="118761060#1"/>
    <trip id="35" depart="2435.00" from="109805922#12" to="861288933#4"/>
    <trip id="36" depart="2436.00" from="861275127#1" to="118876556#1"/>
    <trip id="37" depart="2437.00" from="51406031#9" to="229913537#2"/>
    <trip id="38" depart="2438.00" from="861288928#7" to="32015932#2"/>
    <trip id="39" depart="2439.00" from="118761072#0" to="118761048#12"/>
    <trip id="40" depart="2440.00" from="51405765" to="118761048#9"/>
    <trip id="41" depart="2441.00" from="51405772#2" to="861275129#1"/>
    <trip id="43" depart="2443.00" from="961366015#0" to="50823041#6"/>
    <trip id="45" depart="2445.00" from="-861275119#7" to="51406031#10"/>
    <trip id="46" depart="2446.00" from="709861223#0" to="25999428"/>
    <trip id="47" depart="2447.00" from="-51405774#1" to="229913531#9"/>
    <trip id="49" depart="2449.00" from="961366008" to="861275119#5"/>
    <trip id="50" depart="2450.00" from="-25999428" to="51480629#0"/>
    <trip id="51" depart="2451.00" from="51406035#0" to="50852212#2"/>
    <trip id="52" depart="2452.00" from="118761072#1" to="51406031#9"/>
    <trip id="53" depart="2453.00" from="-861275121" to="28536320#6"/>
    <trip id="54" depart="2454.00" from="32015932#10" to="861288934#1"/>
    <trip id="55" depart="2455.00" from="861275127#0" to="118761048#9"/>
    <trip id="56" depart="2456.00" from="50823041#0" to="-861288930#5"/>
    <trip id="57" depart="2457.00" from="861288928#6" to="861275126"/>
    <trip id="58" depart="2458.00" from="118876533#1" to="51406031#8"/>
    <trip id="60" depart="2460.00" from="709861205" to="51325473"/>
    <trip id="61" depart="2461.00" from="709861212#0" to="50849311#1"/>
    <trip id="62" depart="2462.00" from="-118874854" to="1227518039#2"/>
    <trip id="63" depart="2463.00" from="-316449842" to="861288930#5"/>
    <trip id="64" depart="2464.00" from="861275127#2" to="861124502"/>
    <trip id="65" depart="2465.00" from="118876554#0" to="-51325619#1"/>
    <trip id="66" depart="2466.00" from="861275127#2" to="861288933#7"/>
    <trip id="69" depart="2469.00" from="709861208#1" to="-861275127#1"/>
    <trip id="70" depart="2470.00" from="32016261#3" to="51325753"/>
    <trip id="71" depart="2471.00" from="118761072#0" to="861275127#0"/>
    <trip id="72" depart="2472.00" from="28536320#1" to="109805922#1"/>
    <trip id="74" depart="2474.00" from="107456915" to="118876554#1"/>
    <trip id="76" depart="2476.00" from="30715268" to="50848484#0"/>
    <trip id="77" depart="2477.00" from="-861275127#3" to="109805922#16"/>
    <trip id="78" depart="2478.00" from="182916582" to="51405896#2"/>
    <trip id="79" depart="2479.00" from="109805922#7" to="109805922#14"/>
    <trip id="81" depart="2481.00" from="109805922#6" to="861288928#1"/>
    <trip id="82" depart="2482.00" from="861275119#2" to="-51405769#1"/>
    <trip id="83" depart="2483.00" from="118761048#10" to="51406035#1"/>
    <trip id="84" depart="2484.00" from="109805922#14" to="-861275127#4"/>
    <trip id="85" depart="2485.00" from="861288933#0" to="51405772#0"/>
    <trip id="86" depart="2486.00" from="32016261#2" to="709861222"/>
    <trip id="87" depart="2487.00" from="709861225#1" to="-861288933#5"/>
    <trip id="88" depart="2488.00" from="-861124784#1" to="28536320#4"/>
    <trip id="89" depart="2489.00" from="28536320#2" to="32015932#7"/>
    <trip id="90" depart="2490.00" from="51480627" to="51406035#12"/>
    <trip id="92" depart="2492.00" from="229920457#1" to="182823425"/>
    <trip id="93" depart="2493.00" from="861275119#4" to="118761048#13"/>
    <trip id="94" depart="2494.00" from="-861288933#9" to="316449853#1"/>
    <trip id="95" depart="2495.00" from="28536320#1" to="118761091#1"/>
    <trip id="96" depart="2496.00" from="118761048#4" to="861288930#1"/>
    <trip id="97" depart="2497.00" from="316449842" to="861275119#5"/>
    <trip id="98" depart="2498.00" from="51325619#4" to="-50848943#2"/>
    <trip id="99" depart="2499.00" from="961366015#1" to="861124505"/>
    <trip id="100" depart="2500.00" from="961366006" to="861288930#3"/>
    <trip id="101" depart="2501.00" from="861124784#0" to="-861288928#8"/>
    <trip id="102" depart="2502.00" from="32016348#4" to="109805922#10"/>
    <trip id="103" depart="2503.00" from="229920457#0" to="-51325619#2"/>
    <trip id="104" depart="2504.00" from="229913531#8" to="961366014#2"/>
    <trip id="105" depart="2505.00" from="118761072#0" to="709861222"/>
    <trip id="106" depart="2506.00" from="32015932#11" to="25999428"/>
    <trip id="107" depart="2507.00" from="861292745#1" to="961366014#9"/>
    <trip id="108" depart="2508.00" from="51405763#0" to="51480627"/>
    <trip id="109" depart="2509.00" from="-861288928#5" to="118874859#1"/>
    <trip id="110" depart="2510.00" from="961366006" to="51405774#2"/>
    <trip id="111" depart="2511.00" from="51325473" to="709861200#0"/>
    <trip id="112" depart="2512.00" from="-51325619#3" to="51405893#2"/>
    <trip id="113" depart="2513.00" from="50823041#1" to="861275119#0"/>
    <trip id="114" depart="2514.00" from="-861288928#6" to="861292745#3"/>
    <trip id="115" depart="2515.00" from="-51406026#3" to="-861288933#3"/>
    <trip id="117" depart="2517.00" from="118761048#0" to="-861275119#6"/>
    <trip id="118" depart="2518.00" from="861275128#4" to="118761048#12"/>
    <trip id="120" depart="2520.00" from="25999428" to="51405893#2"/>
    <trip id="121" depart="2521.00" from="50848484#1" to="861288932"/>
    <trip id="122" depart="2522.00" from="109805922#0" to="51432217#2"/>
    <trip id="123" depart="2523.00" from="118761048#10" to="229913537#3"/>
    <trip id="124" depart="2524.00" from="51406033#6" to="118876533#0"/>
    <trip id="125" depart="2525.00" from="1227518037" to="709861201"/>
    <trip id="126" depart="2526.00" from="-51406025#1" to="32015932#2"/>
    <trip id="127" depart="2527.00" from="961366015#1" to="961366014#9"/>
    <trip id="128" depart="2528.00" from="-51406025#1" to="109805922#1"/>
    <trip id="129" depart="2529.00" from="118761072#0" to="861288932"/>
    <trip id="130" depart="2530.00" from="861275127#3" to="861275127#4"/>
    <trip id="131" depart="2531.00" from="229913531#2" to="-861288928#2"/>
    <trip id="132" depart="2532.00" from="861124498#2" to="51406623"/>
    <trip id="134" depart="2534.00" from="51406031#8" to="-182916581#1"/>
    <trip id="135" depart="2535.00" from="709861228#1" to="118876532"/>
    <trip id="136" depart="2536.00" from="51406033#11" to="861288933#2"/>
    <trip id="137" depart="2537.00" from="-861275128#6" to="-861275119#3"/>
    <trip id="138" depart="2538.00" from="-861275119#5" to="51405763#0"/>
    <trip id="139" depart="2539.00" from="118761072#5" to="51406025#3"/>
    <trip id="140" depart="2540.00" from="51406633" to="-861292745#4"/>
    <trip id="141" depart="2541.00" from="51406030#3" to="118761051"/>
    <trip id="142" depart="2542.00" from="32016348#5" to="861288928#1"/>
    <trip id="143" depart="2543.00" from="861124508" to="-51406025#3"/>
    <trip id="144" depart="2544.00" from="28536320#2" to="118761072#5"/>
    <trip id="145" depart="2545.00" from="-1227518037" to="709861211"/>
    <trip id="146" depart="2546.00" from="51406030#5" to="118761048#8"/>
    <trip id="147" depart="2547.00" from="51480630#4" to="51405762"/>
    <trip id="148" depart="2548.00" from="28536320#4" to="-182916581#2"/>
    <trip id="149" depart="2549.00" from="-51406025#3" to="861275128#2"/>
    <trip id="150" depart="2550.00" from="861288928#1" to="51325619#3"/>
    <trip id="151" depart="2551.00" from="861124501" to="51405893#1"/>
    <trip id="152" depart="2552.00" from="-861288928#0" to="-861275127#1"/>
    <trip id="153" depart="2553.00" from="118876554#1" to="861275129#1"/>
    <trip id="154" depart="2554.00" from="709861223#2" to="861275119#5"/>
    <trip id="155" depart="2555.00" from="861275129#0" to="109805916"/>
    <trip id="156" depart="2556.00" from="118761048#4" to="-51406642#1"/>
    <trip id="157" depart="2557.00" from="709861212#0" to="861275128#2"/>
    <trip id="158" depart="2558.00" from="229920457#2" to="51406030#4"/>
    <trip id="159" depart="2559.00" from="-861288928#4" to="861288930#5"/>
    <trip id="160" depart="2560.00" from="861275119#5" to="961366012"/>
    <trip id="161" depart="2561.00" from="709861225#3" to="861275128#1"/>
    <trip id="162" depart="2562.00" from="-330712035#1" to="51480804#0"/>
    <trip id="164" depart="2564.00" from="709861223#6" to="861275119#7"/>
    <trip id="165" depart="2565.00" from="709861225#3" to="118761060#0"/>
    <trip id="166" depart="2566.00" from="709861220#1" to="-861124784#0"/>
    <trip id="167" depart="2567.00" from="861275124" to="861275119#4"/>
    <trip id="168" depart="2568.00" from="109805922#2" to="861124487#0"/>
    <trip id="169" depart="2569.00" from="32015932#4" to="118876550#1"/>
    <trip id="170" depart="2570.00" from="709861223#2" to="109805922#18"/>
    <trip id="171" depart="2571.00" from="-330712035#0" to="-861288933#7"/>
    <trip id="172" depart="2572.00" from="1227518042" to="861275119#7"/>
    <trip id="173" depart="2573.00" from="961366005" to="118761091#1"/>
    <trip id="174" depart="2574.00" from="51406031#1" to="229913537#5"/>
    <trip id="175" depart="2575.00" from="961366014#0" to="50852212#2"/>
    <trip id="176" depart="2576.00" from="861288933#2" to="-861275119#3"/>
    <trip id="177" depart="2577.00" from="961366007" to="-861288930#5"/>
    <trip id="178" depart="2578.00" from="861292745#4" to="118761051"/>
    <trip id="179" depart="2579.00" from="-861275119#6" to="28536320#6"/>
    <trip id="180" depart="2580.00" from="51480627" to="118876556#0"/>
    <trip id="182" depart="2582.00" from="229913533#2" to="51405774#1"/>
    <trip id="183" depart="2583.00" from="118761048#7" to="51406642#2"/>
    <trip id="184" depart="2584.00" from="-118874855" to="861288930#3"/>
    <trip id="186" depart="2586.00" from="51480630#4" to="51406035#10"/>
    <trip id="187" depart="2587.00" from="229913531#1" to="-51405769#0"/>
    <trip id="188" depart="2588.00" from="51406033#11" to="1227518041"/>
    <trip id="189" depart="2589.00" from="1227518036#0" to="861124790"/>
    <trip id="191" depart="2591.00" from="118876554#1" to="229920457#10"/>
    <trip id="192" depart="2592.00" from="229920457#1" to="118874859#0"/>
    <trip id="193" depart="2593.00" from="-861275128#2" to="229920457#9"/>
    <trip id="194" depart="2594.00" from="861288933#3" to="51406035#14"/>
    <trip id="195" depart="2595.00" from="861288928#0" to="51406030#0"/>
    <trip id="196" depart="2596.00" from="118876550#0" to="51325746"/>
    <trip id="197" depart="2597.00" from="-118874854" to="118874856#0"/>
    <trip id="198" depart="2598.00" from="28536320#5" to="51405893#0"/>
    <trip id="199" depart="2599.00" from="51406031#8" to="32015932#6"/>
    <trip id="200" depart="2600.00" from="30715596#2" to="109805922#10"/>
    <trip id="201" depart="2601.00" from="32016261#2" to="861275129#3"/>
    <trip id="202" depart="2602.00" from="709861223#2" to="-861288930#0"/>
    <trip id="204" depart="2604.00" from="51406030#2" to="145244096"/>
    <trip id="205" depart="2605.00" from="709861229#0" to="709861201"/>
    <trip id="206" depart="2606.00" from="51406033#7" to="109805922#16"/>
    <trip id="207" depart="2607.00" from="-861292745#5" to="-330712035#0"/>
    <trip id="209" depart="2609.00" from="861124784#0" to="-51405769#2"/>
    <trip id="210" depart="2610.00" from="229920457#7" to="51406031#2"/>
    <trip id="211" depart="2611.00" from="-861292745#2" to="51406510#1"/>
    <trip id="212" depart="2612.00" from="330712035#0" to="118761048#10"/>
    <trip id="213" depart="2613.00" from="51406031#9" to="-182916581#0"/>
    <trip id="214" depart="2614.00" from="549392001#1" to="709861210#3"/>
    <trip id="215" depart="2615.00" from="-861275119#5" to="28536320#1"/>
    <trip id="216" depart="2616.00" from="-861288933#0" to="861292745#2"/>
    <trip id="217" depart="2617.00" from="50823044#1" to="-50848943#1"/>
    <trip id="218" depart="2618.00" from="118761048#4" to="861124790"/>
    <trip id="219" depart="2619.00" from="32015932#2" to="709861225#2"/>
    <trip id="220" depart="2620.00" from="51406033#3" to="961366014#4"/>
    <trip id="222" depart="2622.00" from="861275128#5" to="51406027"/>
    <trip id="224" depart="2624.00" from="861124498#0" to="51325746"/>
    <trip id="225" depart="2625.00" from="861275128#8" to="549392008"/>
    <trip id="226" depart="2626.00" from="32016261#3" to="118761048#7"/>
    <trip id="227" depart="2627.00" from="118761048#2" to="51406031#7"/>
    <trip id="228" depart="2628.00" from="709861208#1" to="50848943#1"/>
    <trip id="229" depart="2629.00" from="51406026#3" to="118761072#4"/>
    <trip id="230" depart="2630.00" from="-51406026#1" to="118874855"/>
    <trip id="231" depart="2631.00" from="118761072#4" to="1227518037"/>
    <trip id="233" depart="2633.00" from="109805922#7" to="51406510#0"/>
    <trip id="234" depart="2634.00" from="51406035#8" to="-51405765"/>
    <trip id="235" depart="2635.00" from="229920457#3" to="51325619#2"/>
    <trip id="236" depart="2636.00" from="229920457#8" to="-861292745#5"/>
    <trip id="237" depart="2637.00" from="25999428" to="861288928#1"/>
    <trip id="238" depart="2638.00" from="51405772#2" to="51406510#1"/>
    <trip id="239" depart="2639.00" from="861275119#1" to="709861210#1"/>
    <trip id="240" depart="2640.00" from="229913531#9" to="-182916581#0"/>
    <trip id="242" depart="2642.00" from="861124797" to="861288934#1"/>
    <trip id="243" depart="2643.00" from="25999428" to="612731147#1"/>
    <trip id="244" depart="2644.00" from="51325619#2" to="51406025#2"/>
    <trip id="245" depart="2645.00" from="109805922#18" to="109805922#13"/>
    <trip id="246" depart="2646.00" from="28536320#9" to="-50823041#1"/>
    <trip id="247" depart="2647.00" from="182916581#2" to="51406035#15"/>
    <trip id="248" depart="2648.00" from="229920457#10" to="-861288928#7"/>
    <trip id="249" depart="2649.00" from="32015932#8" to="-861275127#1"/>
    <trip id="250" depart="2650.00" from="51406026#1" to="-50823041#0"/>
    <trip id="251" depart="2651.00" from="229913537#2" to="51405768#4"/>
    <trip id="252" depart="2652.00" from="-50823041#1" to="51406032"/>
    <trip id="253" depart="2653.00" from="-861275128#7" to="32015932#4"/>
    <trip id="255" depart="2655.00" from="109805922#12" to="1227518040#0"/>
    <trip id="257" depart="2657.00" from="549392001#1" to="861124502"/>
    <trip id="258" depart="2658.00" from="118761048#5" to="-51405896#2"/>
    <trip id="259" depart="2659.00" from="-316449842" to="51325473"/>
    <trip id="260" depart="2660.00" from="961366015#1" to="182916585#0"/>
    <trip id="261" depart="2661.00" from="51406031#6" to="709861220#1"/>
    <trip id="262" depart="2662.00" from="51406031#7" to="709861205"/>
    <trip id="263" depart="2663.00" from="861288933#9" to="-861292745#1"/>
    <trip id="264" depart="2664.00" from="-32017355#0" to="-861275129#2"/>
    <trip id="265" depart="2665.00" from="-861275128#1" to="51406035#10"/>
    <trip id="266" depart="2666.00" from="51405767" to="109805922#12"/>
    <trip id="267" depart="2667.00" from="51406035#4" to="709861210#1"/>
    <trip id="268" depart="2668.00" from="-861288930#3" to="51406026#1"/>
    <trip id="269" depart="2669.00" from="51480804#1" to="-861275119#3"/>
    <trip id="271" depart="2671.00" from="-861275119#6" to="-330712035#1"/>
    <trip id="272" depart="2672.00" from="118876556#1" to="51406035#14"/>
    <trip id="273" depart="2673.00" from="861292745#2" to="229913537#3"/>
    <trip id="274" depart="2674.00" from="51406623" to="-51405774#1"/>
    <trip id="275" depart="2675.00" from="51406035#14" to="51406031#10"/>
    <trip id="276" depart="2676.00" from="-861275119#2" to="709861212#0"/>
    <trip id="277" depart="2677.00" from="861124790" to="51405899#5"/>
    <trip id="278" depart="2678.00" from="-861275127#3" to="961366014#2"/>
    <trip id="279" depart="2679.00" from="709861213" to="182916584"/>
    <trip id="281" depart="2681.00" from="50823041#3" to="182916581#1"/>
    <trip id="282" depart="2682.00" from="861124784#0" to="861124497#1"/>
    <trip id="283" depart="2683.00" from="-861275119#4" to="861292745#3"/>
    <trip id="284" depart="2684.00" from="51406030#4" to="861124498#2"/>
    <trip id="285" depart="2685.00" from="51406035#9" to="28536320#7"/>
    <trip id="287" depart="2687.00" from="118761072#3" to="709861228#0"/>
    <trip id="289" depart="2689.00" from="28536320#9" to="51480630#3"/>
    <trip id="290" depart="2690.00" from="118761072#2" to="861124797"/>
    <trip id="291" depart="2691.00" from="861124498#1" to="-51406025#0"/>
    <trip id="292" depart="2692.00" from="861275127#4" to="118761048#10"/>
    <trip id="293" depart="2693.00" from="32015932#7" to="51406026#3"/>
    <trip id="294" depart="2694.00" from="229913531#8" to="-50823041#1"/>
    <trip id="295" depart="2695.00" from="861124790" to="-861288933#0"/>
    <trip id="296" depart="2696.00" from="109805922#13" to="709861224"/>
    <trip id="297" depart="2697.00" from="182916583" to="861275128#0"/>
    <trip id="298" depart="2698.00" from="51406035#5" to="118761072#5"/>
    <trip id="299" depart="2699.00" from="-182916581#2" to="861288933#8"/>
    <trip id="301" depart="2701.00" from="32016348#5" to="709861208#1"/>
    <trip id="302" depart="2702.00" from="51406035#14" to="51406033#1"/>
    <trip id="303" depart="2703.00" from="32017355#0" to="709861223#4"/>
    <trip id="304" depart="2704.00" from="-861124487#1" to="109805922#15"/>
    <trip id="305" depart="2705.00" from="51406035#14" to="118876552#0"/>
    <trip id="308" depart="2708.00" from="51480804#0" to="1227518042"/>
    <trip id="309" depart="2709.00" from="51406035#6" to="118761072#2"/>
    <trip id="310" depart="2710.00" from="118761048#5" to="-861275119#7"/>
    <trip id="311" depart="2711.00" from="-861292745#1" to="-861275119#6"/>
    <trip id="313" depart="2713.00" from="-861288933#6" to="109805922#11"/>
    <trip id="314" depart="2714.00" from="32016348#3" to="51480629#2"/>
    <trip id="315" depart="2715.00" from="961366011" to="50848943#3"/>
    <trip id="316" depart="2716.00" from="118874854" to="-51406026#4"/>
    <trip id="317" depart="2717.00" from="-861292745#2" to="109805922#18"/>
    <trip id="318" depart="2718.00" from="-861288933#3" to="-30715596#0"/>
    <trip id="320" depart="2720.00" from="961366010" to="51405763#0"/>
    <trip id="321" depart="2721.00" from="51406035#3" to="-861275127#0"/>
    <trip id="322" depart="2722.00" from="861275121" to="32017355#0"/>
    <trip id="323" depart="2723.00" from="861275124" to="51405772#2"/>
    <trip id="324" depart="2724.00" from="32016261#0" to="30715596#0"/>
    <trip id="325" depart="2725.00" from="-861288933#6" to="-50848943#2"/>
    <trip id="326" depart="2726.00" from="861288933#3" to="32016261#5"/>
    <trip id="327" depart="2727.00" from="709861230" to="229913537#6"/>
    <trip id="328" depart="2728.00" from="-51406025#2" to="51406031#2"/>
    <trip id="330" depart="2730.00" from="51405766" to="118876550#0"/>
    <trip id="332" depart="2732.00" from="709861208#0" to="51406026#1"/>
    <trip id="333" depart="2733.00" from="709861222" to="109805922#17"/>
    <trip id="334" depart="2734.00" from="50848484#1" to="316449853#2"/>
    <trip id="335" depart="2735.00" from="30715596#2" to="861275119#5"/>
    <trip id="337" depart="2737.00" from="51406026#0" to="51406026#3"/>
    <trip id="338" depart="2738.00" from="51480630#3" to="861288933#7"/>
    <trip id="339" depart="2739.00" from="109805922#10" to="109805922#0"/>
    <trip id="340" depart="2740.00" from="51406033#1" to="-861288928#2"/>
    <trip id="341" depart="2741.00" from="-861288930#6" to="-51405774#1"/>
    <trip id="342" depart="2742.00" from="-118874855" to="316449853#2"/>
    <trip id="344" depart="2744.00" from="109805922#8" to="51406642#1"/>
    <trip id="345" depart="2745.00" from="51406035#6" to="32015932#1"/>
    <trip id="346" depart="2746.00" from="51406035#12" to="861288930#2"/>
    <trip id="347" depart="2747.00" from="709861220#1" to="51406031#0"/>
    <trip id="348" depart="2748.00" from="51406033#1" to="861288932"/>
    <trip id="349" depart="2749.00" from="28536320#3" to="51325619#3"/>
    <trip id="350" depart="2750.00" from="51406031#4" to="861288928#3"/>
    <trip id="351" depart="2751.00" from="861124497#1" to="-51405769#1"/>
    <trip id="352" depart="2752.00" from="-861288930#1" to="118876552#0"/>
    <trip id="353" depart="2753.00" from="51480804#1" to="51405770"/>
    <trip id="354" depart="2754.00" from="118874858#0" to="-861275123"/>
    <trip id="355" depart="2755.00" from="51406035#12" to="51406510#3"/>
    <trip id="356" depart="2756.00" from="861288933#4" to="50823041#1"/>
    <trip id="357" depart="2757.00" from="330712035#0" to="-51405896#1"/>
    <trip id="358" depart="2758.00" from="-50823041#9" to="28536320#5"/>
    <trip id="359" depart="2759.00" from="1227518039#2" to="118761048#14"/>
    <trip id="360" depart="2760.00" from="-861124487#0" to="861292745#4"/>
    <trip id="361" depart="2761.00" from="861124502" to="51405772#3"/>
    <trip id="362" depart="2762.00" from="861288933#9" to="961366015#1"/>
    <trip id="363" depart="2763.00" from="51406033#6" to="118761072#1"/>
    <trip id="364" depart="2764.00" from="-50823041#9" to="709861208#0"/>
    <trip id="365" depart="2765.00" from="32016261#0" to="51406033#3"/>
    <trip id="366" depart="2766.00" from="861288928#8" to="-861288933#0"/>
    <trip id="367" depart="2767.00" from="51405772#3" to="51406031#5"/>
    <trip id="368" depart="2768.00" from="32017355#0" to="-51406025#3"/>
    <trip id="370" depart="2770.00" from="51406033#5" to="861275119#3"/>
    <trip id="371" depart="2771.00" from="1227518043" to="51406035#9"/>
    <trip id="372" depart="2772.00" from="118874857" to="861288933#6"/>
    <trip id="373" depart="2773.00" from="709861227" to="51325753"/>
    <trip id="374" depart="2774.00" from="32015932#11" to="118876556#1"/>
    <trip id="375" depart="2775.00" from="1227518040#0" to="961366008"/>
    <trip id="376" depart="2776.00" from="229920457#10" to="50823041#9"/>
    <trip id="378" depart="2778.00" from="51325619#0" to="229920457#4"/>
    <trip id="379" depart="2779.00" from="-861288933#8" to="188826159#0"/>
    <trip id="380" depart="2780.00" from="709861200#0" to="51406031#1"/>
    <trip id="381" depart="2781.00" from="709861201" to="-861292745#3"/>
    <trip id="382" depart="2782.00" from="51325619#4" to="861288930#4"/>
    <trip id="383" depart="2783.00" from="30715596#0" to="51406510#2"/>
    <trip id="384" depart="2784.00" from="-861275127#3" to="961366010"/>
    <trip id="386" depart="2786.00" from="-861288928#7" to="51405762"/>
    <trip id="387" depart="2787.00" from="51325753" to="-51406026#0"/>
    <trip id="389" depart="2789.00" from="32015932#5" to="-861275119#5"/>
    <trip id="390" depart="2790.00" from="861124498#1" to="50822986"/>
    <trip id="391" depart="2791.00" from="51406623" to="50823041#6"/>
    <trip id="392" depart="2792.00" from="118761072#5" to="861124504"/>
    <trip id="393" depart="2793.00" from="961366013" to="118761048#10"/>
    <trip id="394" depart="2794.00" from="51325746" to="229913533#0"/>
    <trip id="395" depart="2795.00" from="861288930#1" to="50823041#6"/>
    <trip id="396" depart="2796.00" from="861275127#2" to="861275119#7"/>
    <trip id="397" depart="2797.00" from="118761091#0" to="709861223#3"/>
    <trip id="398" depart="2798.00" from="229920457#7" to="861288932"/>
    <trip id="399" depart="2799.00" from="50823041#4" to="861124497#0"/>
    <trip id="400" depart="2800.00" from="118874854" to="118876532"/>
    <trip id="401" depart="2801.00" from="51405774#0" to="961366015#1"/>
    <trip id="402" depart="2802.00" from="32016348#6" to="-861275129#0"/>
    <trip id="404" depart="2804.00" from="51325746" to="51325619#2"/>
    <trip id="405" depart="2805.00" from="32015932#11" to="1227518039#0"/>
    <trip id="406" depart="2806.00" from="-861288933#8" to="51406510#2"/>
    <trip id="407" depart="2807.00" from="51405768#4" to="109805922#5"/>
    <trip id="408" depart="2808.00" from="709861210#3" to="-50823044#0"/>
    <trip id="409" depart="2809.00" from="51480630#6" to="51406642#0"/>
    <trip id="410" depart="2810.00" from="709861226" to="229913533#2"/>
    <trip id="411" depart="2811.00" from="51406033#11" to="861124497#0"/>
    <trip id="412" depart="2812.00" from="961366014#0" to="330712035#1"/>
    <trip id="413" depart="2813.00" from="-50823041#7" to="50823041#2"/>
    <trip id="414" depart="2814.00" from="51405774#2" to="861275124"/>
    <trip id="415" depart="2815.00" from="861275126" to="30715596#0"/>
    <trip id="418" depart="2818.00" from="51406031#9" to="-861288928#0"/>
    <trip id="419" depart="2819.00" from="32016261#0" to="961366008"/>
    <trip id="420" depart="2820.00" from="182916582" to="51406035#9"/>
    <trip id="421" depart="2821.00" from="51406031#5" to="861124797"/>
    <trip id="422" depart="2822.00" from="861124792" to="861275119#4"/>
    <trip id="423" depart="2823.00" from="229913531#9" to="1227518036#0"/>
    <trip id="425" depart="2825.00" from="861275124" to="-50823041#6"/>
    <trip id="427" depart="2827.00" from="861288930#0" to="961366015#0"/>
    <trip id="428" depart="2828.00" from="51480804#0" to="28536320#6"/>
    <trip id="429" depart="2829.00" from="-861275119#0" to="51406031#5"/>
    <trip id="430" depart="2830.00" from="861275124" to="30715596#2"/>
    <trip id="431" depart="2831.00" from="51406035#16" to="861288928#0"/>
    <trip id="434" depart="2834.00" from="-861275129#3" to="50849311#2"/>
    <trip id="435" depart="2835.00" from="51405768#0" to="709861223#4"/>
    <trip id="436" depart="2836.00" from="-861288930#4" to="-51405896#0"/>
    <trip id="437" depart="2837.00" from="861275123" to="51406030#3"/>
    <trip id="438" depart="2838.00" from="118761048#11" to="861288928#6"/>
    <trip id="439" depart="2839.00" from="-861275129#1" to="32015932#4"/>
    <trip id="440" depart="2840.00" from="118761048#6" to="118761048#4"/>
    <trip id="441" depart="2841.00" from="-182916581#1" to="709861226"/>
    <trip id="442" depart="2842.00" from="861275129#2" to="51406035#15"/>
    <trip id="443" depart="2843.00" from="-861288928#6" to="30715596#1"/>
    <trip id="444" depart="2844.00" from="182916592#1" to="51405896#1"/>