<configuration>
    <input>
        <net-file value="3x3_grid_replay.net.xml"/>
        <route-files value="3x3_routes_replay.rou.xml"/>
    </input>
    <time>
        <begin value="0"/>
        <end value="3600"/>
    </time>
</configuration>
