<?xml version="1.0" encoding="UTF-8"?>

<!-- generated on 2025-03-28 18:03:18 by Eclipse SUMO netconvert Version 1.22.0
<netconvertConfiguration xmlns:xsi="http://www.w3.org/2001/XMLSchema-instance" xsi:noNamespaceSchemaLocation="http://sumo.dlr.de/xsd/netconvertConfiguration.xsd">

    <input>
        <osm-files value="map.osm"/>
    </input>

    <output>
        <output-file value="my_net.net.xml"/>
    </output>

    <projection>
        <proj.utm value="true"/>
    </projection>

</netconvertConfiguration>
-->

<net version="1.20" junctionCornerDetail="5" limitTurnSpeed="5.50" xmlns:xsi="http://www.w3.org/2001/XMLSchema-instance" xsi:noNamespaceSchemaLocation="http://sumo.dlr.de/xsd/net_file.xsd">

    <location netOffset="-667004.28,-3541927.31" convBoundary="0.00,0.00,2955.02,1490.18" origBoundary="34.768042,32.000394,34.799344,32.022697" projParameter="+proj=utm +zone=36 +ellps=WGS84 +datum=WGS84 +units=m +no_defs"/>

    <type id="highway.cycleway" priority="1" numLanes="1" speed="5.56" allow="bicycle" oneway="0" width="2.00"/>
    <type id="highway.footway" priority="1" numLanes="1" speed="2.78" allow="pedestrian" oneway="1" width="2.00"/>
    <type id="highway.path" priority="1" numLanes="1" speed="5.56" allow="pedestrian bicycle" oneway="0" width="2.00"/>
    <type id="highway.pedestrian" priority="1" numLanes="1" speed="2.78" allow="pedestrian" oneway="1" width="2.00"/>
    <type id="highway.residential" priority="3" numLanes="1" speed="13.89" disallow="tram rail_urban rail rail_electric rail_fast ship container cable_car subway aircraft wheelchair scooter drone" oneway="0"/>
    <type id="highway.secondary" priority="11" numLanes="1" speed="27.78" disallow="tram rail_urban rail rail_electric rail_fast ship container cable_car subway aircraft wheelchair scooter drone" oneway="0"/>
    <type id="highway.secondary_link" priority="6" numLanes="1" speed="22.22" disallow="tram rail_urban rail rail_electric rail_fast ship container cable_car subway aircraft wheelchair scooter drone" oneway="0"/>
    <type id="highway.service" priority="1" numLanes="1" speed="5.56" allow="pedestrian delivery bicycle" oneway="0"/>
    <type id="highway.tertiary" priority="10" numLanes="1" speed="22.22" disallow="tram rail_urban rail rail_electric rail_fast ship container cable_car subway aircraft wheelchair scooter drone" oneway="0"/>
    <type id="highway.tertiary_link" priority="5" numLanes="1" speed="22.22" disallow="tram rail_urban rail rail_electric rail_fast ship container cable_car subway aircraft wheelchair scooter drone" oneway="0"/>

    <edge id=":11017544842_0" function="internal">
        <lane id=":11017544842_0_0" index="0" allow="bicycle" speed="5.56" length="0.73" width="0.50" shape="1408.59,472.52 1408.77,472.66 1408.82,472.79 1408.75,472.91 1408.55,473.02"/>
    </edge>
    <edge id=":11017544845_0" function="internal">
        <lane id=":11017544845_0_0" index="0" allow="bicycle" speed="3.06" length="2.16" width="0.50" shape="1146.67,456.32 1146.00,456.25 1145.44,456.23 1145.05,456.40 1144.90,456.88"/>
    </edge>
    <edge id=":11017544845_1" function="internal">
        <lane id=":11017544845_1_0" index="0" allow="bicycle" speed="5.56" length="9.48" width="0.50" shape="1146.67,456.32 1137.21,455.70"/>
    </edge>
    <edge id=":11017544845_2" function="internal">
        <lane id=":11017544845_2_0" index="0" allow="bicycle" speed="5.56" length="8.61" width="0.50" shape="1146.67,456.32 1143.31,455.96 1140.92,455.38 1139.49,454.57 1139.01,453.55"/>
    </edge>
    <edge id=":11017544845_3" function="internal">
        <lane id=":11017544845_3_0" index="0" allow="bicycle" speed="5.56" length="0.73" width="0.50" shape="1146.67,456.32 1146.49,456.18 1146.43,456.06 1146.50,455.93 1146.70,455.82"/>
    </edge>
    <edge id=":11017544845_4" function="internal">
        <lane id=":11017544845_4_0" index="0" allow="bicycle" speed="4.32" length="3.24" width="0.50" shape="1144.91,453.56 1145.02,454.51 1145.35,455.20 1145.91,455.64 1146.70,455.82"/>
    </edge>
    <edge id=":11017544845_5" function="internal">
        <lane id=":11017544845_5_0" index="0" allow="pedestrian delivery bicycle" speed="5.56" length="3.32" shape="1143.56,453.56 1143.55,456.88"/>
    </edge>
    <edge id=":11017544845_6" function="internal">
        <lane id=":11017544845_6_0" index="0" allow="bicycle" speed="5.36" length="6.07" width="0.50" shape="1142.21,453.55 1141.90,454.62 1140.96,455.33 1139.40,455.69 1137.21,455.70"/>
    </edge>
    <edge id=":11017544845_7" function="internal">
        <lane id=":11017544845_7_0" index="0" allow="pedestrian delivery bicycle" speed="3.65" length="4.67" shape="1143.56,453.56 1142.76,454.75 1141.96,455.15 1141.16,454.75 1140.36,453.55"/>
    </edge>
    <edge id=":11017544845_8" function="internal">
        <lane id=":11017544845_8_0" index="0" allow="bicycle" speed="3.45" length="2.80" width="0.50" shape="1137.24,455.20 1138.01,455.14 1138.57,454.84 1138.90,454.31 1139.01,453.55"/>
    </edge>
    <edge id=":11017544845_9" function="internal">
        <lane id=":11017544845_9_0" index="0" allow="bicycle" speed="5.56" length="9.48" width="0.50" shape="1137.24,455.20 1146.70,455.82"/>
    </edge>
    <edge id=":11017544845_10" function="internal">
        <lane id=":11017544845_10_0" index="0" allow="bicycle" speed="5.56" length="8.02" width="0.50" shape="1137.24,455.20 1140.60,455.50 1142.99,455.88 1144.42,456.34 1144.90,456.88"/>
    </edge>
    <edge id=":11017544845_11" function="internal">
        <lane id=":11017544845_11_0" index="0" allow="bicycle" speed="5.56" length="0.73" width="0.50" shape="1137.24,455.20 1137.42,455.33 1137.48,455.46 1137.41,455.58 1137.21,455.70"/>
    </edge>
    <edge id=":11017544845_12" function="internal">
        <lane id=":11017544845_12_0" index="0" allow="bicycle" speed="3.85" length="2.36" width="0.50" shape="1139.00,456.86 1138.89,456.40 1138.56,456.05 1138.00,455.81 1137.21,455.70"/>
    </edge>
    <edge id=":11017544845_13" function="internal">
        <lane id=":11017544845_13_0" index="0" allow="pedestrian delivery bicycle" speed="5.56" length="3.32" shape="1140.35,456.87 1140.36,453.55"/>
    </edge>
    <edge id=":11017544845_14" function="internal">
        <lane id=":11017544845_14_0" index="0" allow="bicycle" speed="5.11" length="5.42" width="0.50" shape="1141.70,456.87 1142.02,456.29 1142.95,455.92 1144.51,455.77 1146.70,455.82"/>
    </edge>
    <edge id=":11017544845_15" function="internal">
        <lane id=":11017544845_15_0" index="0" allow="pedestrian delivery bicycle" speed="3.65" length="4.67" shape="1140.35,456.87 1141.16,455.67 1141.96,455.27 1142.76,455.68 1143.55,456.88"/>
    </edge>
    <edge id=":11017544847_0" function="internal">
        <lane id=":11017544847_0_0" index="0" allow="bicycle" speed="5.56" length="0.73" width="0.50" shape="953.04,442.39 952.87,442.25 952.82,442.12 952.89,442.00 953.09,441.89"/>
    </edge>
    <edge id=":11020140367_0" function="internal">
        <lane id=":11020140367_0_0" index="0" allow="pedestrian bicycle" speed="5.56" length="6.47" width="2.00" shape="950.63,825.40 950.39,818.93"/>
    </edge>
    <edge id=":11020140367_1" function="internal">
        <lane id=":11020140367_1_0" index="0" allow="pedestrian bicycle" speed="5.48" length="0.64" width="2.00" shape="950.63,825.40 950.72,824.77"/>
    </edge>
    <edge id=":11020140367_2" function="internal">
        <lane id=":11020140367_2_0" index="0" allow="pedestrian bicycle" speed="2.89" length="2.45" width="2.00" shape="950.63,825.40 951.08,824.62 951.56,824.34 952.08,824.56 952.34,824.90"/>
    </edge>
    <edge id=":11020140367_9" function="internal">
        <lane id=":11020140367_9_0" index="0" allow="pedestrian bicycle" speed="5.48" length="5.72" width="2.00" shape="950.72,824.77 950.83,824.01 951.63,822.96 953.04,822.24 955.04,821.86"/>
    </edge>
    <edge id=":11020140367_10" function="internal">
        <lane id=":11020140367_10_0" index="0" allow="pedestrian bicycle" speed="2.89" length="0.47" width="2.00" shape="952.34,824.90 952.62,825.27"/>
    </edge>
    <edge id=":11020140367_3" function="internal">
        <lane id=":11020140367_3_0" index="0" allow="pedestrian bicycle" speed="4.58" length="4.60" width="2.00" shape="952.39,818.91 952.57,820.29 953.07,821.24 953.89,821.76 955.04,821.86"/>
    </edge>
    <edge id=":11020140367_4" function="internal">
        <lane id=":11020140367_4_0" index="0" allow="pedestrian bicycle" speed="5.56" length="6.37" width="2.00" shape="952.39,818.91 952.62,825.27"/>
    </edge>
    <edge id=":11020140367_5" function="internal">
        <lane id=":11020140367_5_0" index="0" allow="pedestrian bicycle" speed="2.89" length="0.79" width="2.00" shape="952.39,818.91 951.96,819.58"/>
    </edge>
    <edge id=":11020140367_11" function="internal">
        <lane id=":11020140367_11_0" index="0" allow="pedestrian bicycle" speed="2.89" length="2.13" width="2.00" shape="951.96,819.58 951.90,819.67 951.40,819.92 950.90,819.68 950.39,818.93"/>
    </edge>
    <edge id=":11020140367_6" function="internal">
        <lane id=":11020140367_6_0" index="0" allow="pedestrian bicycle" speed="4.51" length="3.56" width="2.00" shape="950.49,822.27 950.90,821.85 950.82,820.94 950.55,819.86 950.39,818.93"/>
    </edge>
    <edge id=":11020140367_7" function="internal">
        <lane id=":11020140367_7_0" index="0" disallow="tram rail_urban rail rail_electric rail_fast ship container cable_car subway aircraft wheelchair scooter drone" speed="13.89" length="4.57" shape="950.49,822.27 955.04,821.86"/>
    </edge>
    <edge id=":11020140367_8" function="internal">
        <lane id=":11020140367_8_0" index="0" allow="pedestrian bicycle" speed="4.63" length="4.15" width="2.00" shape="950.49,822.27 951.35,822.40 951.99,822.94 952.41,823.89 952.62,825.27"/>
    </edge>
    <edge id=":11020140368_0" function="internal">
        <lane id=":11020140368_0_0" index="0" allow="pedestrian bicycle" speed="4.15" length="3.39" width="2.00" shape="951.20,832.75 951.23,831.83 951.33,830.78 951.25,829.93 950.77,829.62"/>
    </edge>
    <edge id=":11020140368_1" function="internal">
        <lane id=":11020140368_1_0" index="0" allow="pedestrian bicycle" speed="5.56" length="6.29" width="2.00" shape="951.20,832.75 950.70,826.47"/>
    </edge>
    <edge id=":11020140368_2" function="internal">
        <lane id=":11020140368_2_0" index="0" allow="pedestrian bicycle" speed="2.89" length="2.42" width="2.00" shape="951.20,832.75 951.63,831.95 952.10,831.66 952.62,831.86 952.88,832.17"/>
    </edge>
    <edge id=":11020140368_9" function="internal">
        <lane id=":11020140368_9_0" index="0" allow="pedestrian bicycle" speed="2.89" length="0.50" width="2.00" shape="952.88,832.17 953.19,832.56"/>
    </edge>
    <edge id=":11020140368_3" function="internal">
        <lane id=":11020140368_3_0" index="0" allow="pedestrian bicycle" speed="4.82" length="4.54" width="2.00" shape="955.42,829.26 954.33,829.54 953.60,830.18 953.22,831.19 953.19,832.56"/>
    </edge>
    <edge id=":11020140368_4" function="internal">
        <lane id=":11020140368_4_0" index="0" disallow="tram rail_urban rail rail_electric rail_fast ship container cable_car subway aircraft wheelchair scooter drone" speed="13.89" length="4.66" shape="955.42,829.26 950.77,829.62"/>
    </edge>
    <edge id=":11020140368_5" function="internal">
        <lane id=":11020140368_5_0" index="0" allow="pedestrian bicycle" speed="5.50" length="6.20" width="2.00" shape="955.42,829.26 953.43,829.21 951.98,828.73 951.07,827.82 950.70,826.47"/>
    </edge>
    <edge id=":11020140368_6" function="internal">
        <lane id=":11020140368_6_0" index="0" allow="pedestrian bicycle" speed="5.56" length="6.23" width="2.00" shape="952.69,826.35 953.19,832.56"/>
    </edge>
    <edge id=":11020140368_7" function="internal">
        <lane id=":11020140368_7_0" index="0" allow="pedestrian bicycle" speed="4.57" length="0.94" width="2.00" shape="952.69,826.35 952.66,827.28"/>
    </edge>
    <edge id=":11020140368_8" function="internal">
        <lane id=":11020140368_8_0" index="0" allow="pedestrian bicycle" speed="2.89" length="0.79" width="2.00" shape="952.69,826.35 952.30,827.03"/>
    </edge>
    <edge id=":11020140368_10" function="internal">
        <lane id=":11020140368_10_0" index="0" allow="pedestrian bicycle" speed="4.57" length="3.33" width="2.00" shape="952.66,827.28 952.65,827.71 952.31,828.71 951.69,829.35 950.77,829.62"/>
    </edge>
    <edge id=":11020140368_11" function="internal">
        <lane id=":11020140368_11_0" index="0" allow="pedestrian bicycle" speed="2.89" length="2.13" width="2.00" shape="952.30,827.03 952.24,827.13 951.76,827.41 951.25,827.19 950.70,826.47"/>
    </edge>
    <edge id=":1112129202_0" function="internal">
        <lane id=":1112129202_0_0" index="0" allow="pedestrian delivery bicycle" speed="4.62" length="4.27" shape="1101.74,1213.67 1098.16,1215.99"/>
    </edge>
    <edge id=":1112129202_1" function="internal">
        <lane id=":1112129202_1_0" index="0" allow="pedestrian delivery bicycle" speed="13.89" length="10.47" shape="1101.74,1213.67 1101.26,1210.51 1101.23,1208.31 1101.44,1206.10 1101.67,1202.88"/>
        <lane id=":1112129202_1_1" index="1" allow="pedestrian delivery bicycle" speed="13.89" length="10.47" shape="1104.88,1213.05 1104.44,1210.11 1104.43,1208.07 1104.64,1206.00 1104.86,1203.01"/>
    </edge>
    <edge id=":1112129202_3" function="internal">
        <lane id=":1112129202_3_0" index="0" disallow="tram rail_urban rail rail_electric rail_fast ship container cable_car subway aircraft wheelchair scooter drone" speed="27.78" length="9.16" shape="1106.39,1212.04 1103.87,1213.01 1102.28,1214.02 1100.68,1215.03 1098.16,1215.99"/>
        <lane id=":1112129202_3_1" index="1" disallow="tram rail_urban rail rail_electric rail_fast ship container cable_car subway aircraft wheelchair scooter drone" speed="27.78" length="9.16" shape="1105.52,1208.96 1103.00,1209.93 1101.42,1210.94 1099.83,1211.95 1097.31,1212.91"/>
        <lane id=":1112129202_3_2" index="2" disallow="tram rail_urban rail rail_electric rail_fast ship container cable_car subway aircraft wheelchair scooter drone" speed="27.78" length="9.16" shape="1105.52,1208.96 1102.87,1209.45 1100.99,1209.40 1099.11,1209.35 1096.46,1209.82"/>
    </edge>
    <edge id=":1112129211_0" function="internal">
        <lane id=":1112129211_0_0" index="0" allow="pedestrian delivery bicycle" speed="3.65" length="4.67" shape="1105.91,1218.34 1105.35,1219.67 1104.64,1220.21 1103.78,1219.97 1102.77,1218.95"/>
    </edge>
    <edge id=":1114929971_0" function="internal">
        <lane id=":1114929971_0_0" index="0" allow="pedestrian delivery bicycle" speed="5.56" length="4.08" shape="1102.44,1217.26 1101.78,1213.86"/>
        <lane id=":1114929971_0_1" index="1" allow="pedestrian delivery bicycle" speed="5.56" length="4.08" shape="1102.44,1217.26 1104.92,1213.25"/>
    </edge>
    <edge id=":1114929971_2" function="internal">
        <lane id=":1114929971_2_0" index="0" allow="pedestrian delivery bicycle" speed="3.65" length="4.67" shape="1102.44,1217.26 1103.00,1215.93 1103.71,1215.38 1104.57,1215.62 1105.58,1216.65"/>
    </edge>
    <edge id=":1114929971_3" function="internal">
        <lane id=":1114929971_3_0" index="0" allow="pedestrian delivery bicycle" speed="5.56" length="3.68" shape="1106.01,1213.13 1105.53,1214.09 1105.35,1214.82 1105.39,1215.58 1105.58,1216.65"/>
    </edge>
    <edge id=":1114929971_4" function="internal">
        <lane id=":1114929971_4_0" index="0" allow="pedestrian delivery bicycle" speed="3.01" length="1.86" shape="1106.01,1213.13 1105.63,1213.69 1105.32,1213.90 1105.09,1213.75 1104.92,1213.25"/>
    </edge>
    <edge id=":1114930005_0" function="internal">
        <lane id=":1114930005_0_0" index="0" disallow="tram rail_urban rail rail_electric rail_fast ship container cable_car subway aircraft wheelchair scooter drone" speed="13.89" length="0.26" shape="958.46,1349.01 958.49,1349.27"/>
    </edge>
    <edge id=":1114930008_0" function="internal">
        <lane id=":1114930008_0_0" index="0" allow="pedestrian delivery bicycle" speed="6.08" length="3.13" shape="1108.73,1211.37 1107.79,1211.69 1107.03,1212.06 1106.47,1212.48 1106.10,1212.95"/>
    </edge>
    <edge id=":1114930008_1" function="internal">
        <lane id=":1114930008_1_0" index="0" disallow="tram rail_urban rail rail_electric rail_fast ship container cable_car subway aircraft wheelchair scooter drone" speed="27.78" length="2.23" shape="1108.73,1211.37 1106.58,1211.98"/>
        <lane id=":1114930008_1_1" index="1" disallow="tram rail_urban rail rail_electric rail_fast ship container cable_car subway aircraft wheelchair scooter drone" speed="27.78" length="2.23" shape="1107.86,1208.29 1105.71,1208.90"/>
    </edge>
    <edge id=":1114930010_0" function="internal">
        <lane id=":1114930010_0_0" index="0" disallow="tram rail_urban rail rail_electric rail_fast ship container cable_car subway aircraft wheelchair scooter drone" speed="27.78" length="12.17" shape="1097.74,1184.93 1109.50,1181.62"/>
        <lane id=":1114930010_0_1" index="1" disallow="tram rail_urban rail rail_electric rail_fast ship container cable_car subway aircraft wheelchair scooter drone" speed="27.78" length="12.17" shape="1098.62,1188.01 1110.33,1184.71"/>
        <lane id=":1114930010_0_2" index="2" disallow="tram rail_urban rail rail_electric rail_fast ship container cable_car subway aircraft wheelchair scooter drone" speed="27.78" length="12.17" shape="1099.50,1191.09 1111.16,1187.80"/>
    </edge>
    <edge id=":1114930010_3" function="internal">
        <lane id=":1114930010_3_0" index="0" disallow="tram rail_urban rail rail_electric rail_fast ship container cable_car subway aircraft wheelchair scooter drone" speed="10.59" length="12.88" shape="1102.57,1194.52 1104.39,1190.65 1106.29,1187.73 1108.27,1185.74 1110.33,1184.71"/>
        <lane id=":1114930010_3_1" index="1" disallow="tram rail_urban rail rail_electric rail_fast ship container cable_car subway aircraft wheelchair scooter drone" speed="9.37" length="9.97" shape="1105.53,1195.74 1106.99,1192.53 1108.42,1190.14 1109.81,1188.56 1111.16,1187.80"/>
    </edge>
    <edge id=":11328998393_0" function="internal">
        <lane id=":11328998393_0_0" index="0" allow="pedestrian bicycle" speed="2.89" length="2.92" width="2.00" shape="829.86,331.10 829.66,330.22 829.82,329.68 830.35,329.49 831.24,329.65"/>
    </edge>
    <edge id=":11328998394_0" function="internal">
        <lane id=":11328998394_0_0" index="0" allow="pedestrian bicycle" speed="5.56" length="6.97" width="2.00" shape="890.52,413.24 883.58,412.53"/>
    </edge>
    <edge id=":11328998394_1" function="internal">
        <lane id=":11328998394_1_0" index="0" allow="pedestrian bicycle" speed="5.56" length="7.26" width="2.00" shape="890.52,413.24 888.64,412.76 887.33,411.76 886.60,410.26 886.45,408.25"/>
    </edge>
    <edge id=":11328998394_2" function="internal">
        <lane id=":11328998394_2_0" index="0" allow="pedestrian bicycle" speed="2.89" length="2.92" width="2.00" shape="890.52,413.24 889.82,412.67 889.63,412.14 889.93,411.67 890.73,411.25"/>
    </edge>
    <edge id=":11328998394_3" function="internal">
        <lane id=":11328998394_3_0" index="0" allow="pedestrian bicycle" speed="4.56" length="4.15" width="2.00" shape="888.45,408.37 888.53,409.53 888.94,410.40 889.67,410.98 890.73,411.25"/>
    </edge>
    <edge id=":11328998394_4" function="internal">
        <lane id=":11328998394_4_0" index="0" allow="pedestrian bicycle" speed="5.56" length="7.36" width="2.00" shape="888.45,408.37 888.04,410.36 887.09,411.71 885.61,412.44 883.58,412.53"/>
    </edge>
    <edge id=":11328998394_5" function="internal">
        <lane id=":11328998394_5_0" index="0" allow="pedestrian bicycle" speed="2.89" length="2.92" width="2.00" shape="888.45,408.37 887.91,409.09 887.39,409.31 886.91,409.03 886.45,408.25"/>
    </edge>
    <edge id=":11328998394_6" function="internal">
        <lane id=":11328998394_6_0" index="0" allow="pedestrian bicycle" speed="4.39" length="4.05" width="2.00" shape="883.77,410.54 884.89,410.49 885.71,410.09 886.23,409.34 886.45,408.25"/>
    </edge>
    <edge id=":11328998394_7" function="internal">
        <lane id=":11328998394_7_0" index="0" allow="pedestrian bicycle" speed="5.56" length="6.99" width="2.00" shape="883.77,410.54 890.73,411.25"/>
    </edge>
    <edge id=":11328998394_8" function="internal">
        <lane id=":11328998394_8_0" index="0" allow="pedestrian bicycle" speed="2.89" length="2.92" width="2.00" shape="883.77,410.54 884.47,411.11 884.67,411.63 884.37,412.10 883.58,412.53"/>
    </edge>
    <edge id=":11383117139_0" function="internal">
        <lane id=":11383117139_0_0" index="0" disallow="tram rail_urban rail rail_electric rail_fast ship container cable_car subway aircraft wheelchair scooter drone" speed="8.11" length="8.94" shape="1685.81,861.19 1686.20,863.41 1687.12,865.32 1688.60,866.92 1690.61,868.21"/>
    </edge>
    <edge id=":11383117139_1" function="internal">
        <lane id=":11383117139_1_0" index="0" disallow="tram rail_urban rail rail_electric rail_fast ship container cable_car subway aircraft wheelchair scooter drone" speed="7.61" length="8.59" shape="1678.08,868.06 1680.14,866.73 1681.58,865.17 1682.41,863.38 1682.62,861.35"/>
    </edge>
    <edge id=":11383117139_2" function="internal">
        <lane id=":11383117139_2_0" index="0" disallow="tram rail_urban rail rail_electric rail_fast ship container cable_car subway aircraft wheelchair scooter drone" speed="10.53" length="13.01" shape="1678.08,868.06 1681.13,866.91 1684.23,866.56 1687.39,866.99 1690.61,868.21"/>
    </edge>
    <edge id=":11383117140_0" function="internal">
        <lane id=":11383117140_0_0" index="0" disallow="tram rail_urban rail rail_electric rail_fast ship container cable_car subway aircraft wheelchair scooter drone" speed="7.22" length="6.81" shape="1675.16,885.06 1674.13,883.88 1672.79,883.06 1671.14,882.61 1669.18,882.52"/>
    </edge>
    <edge id=":11383117140_1" function="internal">
        <lane id=":11383117140_1_0" index="0" disallow="tram rail_urban rail rail_electric rail_fast ship container cable_car subway aircraft wheelchair scooter drone" speed="10.07" length="7.13" shape="1675.16,885.06 1673.92,883.32 1673.02,882.08 1672.53,880.73 1672.52,878.70"/>
    </edge>
    <edge id=":11383117141_0" function="internal">
        <lane id=":11383117141_0_0" index="0" disallow="tram rail_urban rail rail_electric rail_fast ship container cable_car subway aircraft wheelchair scooter drone" speed="7.58" length="8.68" shape="1684.64,894.42 1684.19,892.40 1683.16,890.69 1681.52,889.31 1679.30,888.24"/>
    </edge>
    <edge id=":11383117141_1" function="internal">
        <lane id=":11383117141_1_0" index="0" disallow="tram rail_urban rail rail_electric rail_fast ship container cable_car subway aircraft wheelchair scooter drone" speed="8.26" length="9.08" shape="1691.79,886.52 1689.94,888.08 1688.66,889.88 1687.96,891.93 1687.83,894.21"/>
    </edge>
    <edge id=":11383117141_2" function="internal">
        <lane id=":11383117141_2_0" index="0" disallow="tram rail_urban rail rail_electric rail_fast ship container cable_car subway aircraft wheelchair scooter drone" speed="10.56" length="13.10" shape="1691.79,886.52 1688.76,888.14 1685.66,888.97 1682.51,889.00 1679.30,888.24"/>
    </edge>
    <edge id=":11383117143_0" function="internal">
        <lane id=":11383117143_0_0" index="0" disallow="tram rail_urban rail rail_electric rail_fast ship container cable_car subway aircraft wheelchair scooter drone" speed="7.13" length="6.90" shape="1668.64,875.03 1670.60,874.73 1672.19,874.08 1673.43,873.09 1674.31,871.74"/>
    </edge>
    <edge id=":11383117143_1" function="internal">
        <lane id=":11383117143_1_0" index="0" disallow="tram rail_urban rail rail_electric rail_fast ship container cable_car subway aircraft wheelchair scooter drone" speed="22.22" length="7.05" shape="1672.54,878.50 1672.75,876.42 1673.00,875.01 1673.46,873.65 1674.31,871.74"/>
    </edge>
    <edge id=":11383117145_0" function="internal">
        <lane id=":11383117145_0_0" index="0" disallow="tram rail_urban rail rail_electric rail_fast ship container cable_car subway aircraft wheelchair scooter drone" speed="8.06" length="6.42" shape="1693.72,871.36 1694.53,872.37 1695.71,873.21 1697.26,873.89 1699.18,874.40"/>
    </edge>
    <edge id=":11383117145_1" function="internal">
        <lane id=":11383117145_1_0" index="0" disallow="tram rail_urban rail rail_electric rail_fast ship container cable_car subway aircraft wheelchair scooter drone" speed="10.04" length="6.14" shape="1693.72,871.36 1694.71,872.91 1695.41,874.01 1695.78,875.19 1695.79,876.96"/>
    </edge>
    <edge id=":11383117156_0" function="internal">
        <lane id=":11383117156_0_0" index="0" disallow="tram rail_urban rail rail_electric rail_fast ship container cable_car subway aircraft wheelchair scooter drone" speed="6.54" length="8.89" shape="1598.94,873.58 1599.50,875.92 1600.69,877.54 1602.51,878.45 1604.94,878.65"/>
    </edge>
    <edge id=":11383117156_1" function="internal">
        <lane id=":11383117156_1_0" index="0" disallow="tram rail_urban rail rail_electric rail_fast ship container cable_car subway aircraft wheelchair scooter drone" speed="22.22" length="8.66" shape="1598.94,873.58 1599.73,882.20"/>
    </edge>
    <edge id=":11383117156_2" function="internal">
        <lane id=":11383117156_2_0" index="0" disallow="tram rail_urban rail rail_electric rail_fast ship container cable_car subway aircraft wheelchair scooter drone" speed="22.22" length="10.74" shape="1594.46,880.71 1597.39,879.73 1599.60,879.16 1601.86,878.86 1604.94,878.65"/>
    </edge>
    <edge id=":11383117156_3" function="internal">
        <lane id=":11383117156_3_0" index="0" disallow="tram rail_urban rail rail_electric rail_fast ship container cable_car subway aircraft wheelchair scooter drone" speed="5.23" length="6.49" shape="1594.46,880.71 1596.66,880.15 1598.27,880.21 1599.29,880.89 1599.73,882.20"/>
    </edge>
    <edge id=":11383117157_0" function="internal">
        <lane id=":11383117157_0_0" index="0" disallow="tram rail_urban rail rail_electric rail_fast ship container cable_car subway aircraft wheelchair scooter drone" speed="22.22" length="3.79" shape="1705.71,878.19 1704.59,878.21 1703.82,878.29 1703.07,878.46 1701.98,878.76"/>
    </edge>
    <edge id=":11383117157_1" function="internal">
        <lane id=":11383117157_1_0" index="0" disallow="tram rail_urban rail rail_electric rail_fast ship container cable_car subway aircraft wheelchair scooter drone" speed="3.65" length="1.44" shape="1705.71,878.19 1704.51,877.39"/>
    </edge>
    <edge id=":11383117157_4" function="internal">
        <lane id=":11383117157_4_0" index="0" disallow="tram rail_urban rail rail_electric rail_fast ship container cable_car subway aircraft wheelchair scooter drone" speed="3.65" length="3.23" shape="1704.51,877.39 1704.10,876.60 1704.50,875.79 1705.70,874.99"/>
    </edge>
    <edge id=":11383117157_2" function="internal">
        <lane id=":11383117157_2_0" index="0" disallow="tram rail_urban rail rail_electric rail_fast ship container cable_car subway aircraft wheelchair scooter drone" speed="22.22" length="5.23" shape="1700.50,874.67 1702.02,874.94 1703.08,875.03 1704.14,875.02 1705.70,874.99"/>
    </edge>
    <edge id=":11383117157_3" function="internal">
        <lane id=":11383117157_3_0" index="0" disallow="tram rail_urban rail rail_electric rail_fast ship container cable_car subway aircraft wheelchair scooter drone" speed="5.17" length="3.90" shape="1700.50,874.67 1704.07,875.64 1704.23,875.75"/>
    </edge>
    <edge id=":11383117157_5" function="internal">
        <lane id=":11383117157_5_0" index="0" disallow="tram rail_urban rail rail_electric rail_fast ship container cable_car subway aircraft wheelchair scooter drone" speed="5.17" length="5.84" shape="1704.23,875.75 1705.51,876.64 1704.81,877.68 1701.98,878.76"/>
    </edge>
    <edge id=":11383117160_0" function="internal">
        <lane id=":11383117160_0_0" index="0" disallow="tram rail_urban rail rail_electric rail_fast ship container cable_car subway aircraft wheelchair scooter drone" speed="13.89" length="8.54" shape="2037.61,856.75 2037.70,854.24 2038.15,852.54 2038.60,850.84 2038.69,848.33"/>
    </edge>
    <edge id=":11383117160_1" function="internal">
        <lane id=":11383117160_1_0" index="0" disallow="tram rail_urban rail rail_electric rail_fast ship container cable_car subway aircraft wheelchair scooter drone" speed="6.65" length="9.61" shape="2037.61,856.75 2038.01,855.16 2039.45,853.97 2041.91,853.19 2045.41,852.82"/>
    </edge>
    <edge id=":11383117160_2" function="internal">
        <lane id=":11383117160_2_0" index="0" disallow="tram rail_urban rail rail_electric rail_fast ship container cable_car subway aircraft wheelchair scooter drone" speed="3.68" length="4.73" shape="2037.61,856.75 2038.37,855.50 2039.16,855.07 2039.98,855.44 2040.84,856.62"/>
    </edge>
    <edge id=":11383117160_3" function="internal">
        <lane id=":11383117160_3_0" index="0" disallow="tram rail_urban rail rail_electric rail_fast ship container cable_car subway aircraft wheelchair scooter drone" speed="7.40" length="9.96" shape="2032.42,855.00 2035.27,853.87 2037.27,852.38 2038.41,850.54 2038.69,848.33"/>
    </edge>
    <edge id=":11383117160_4" function="internal">
        <lane id=":11383117160_4_0" index="0" disallow="tram rail_urban rail rail_electric rail_fast ship container cable_car subway aircraft wheelchair scooter drone" speed="22.22" length="13.21" shape="2032.42,855.00 2035.77,854.10 2038.84,853.47 2041.95,853.05 2045.41,852.82"/>
    </edge>
    <edge id=":11383117160_5" function="internal">