<?xml version="1.0" encoding="UTF-8"?>

<!-- generated on 2025-04-05 20:45:40.142480 by randomTrips.py v1_22_0+0002-63e50f52594
<configuration>
    <net-file value="additional_data_collector/data_collector/sumo_config/holon.net.xml"/>
    <route-file value="additional_data_collector/data_collector/sumo_config/holon_evening.trips.xml"/>
    <validate value="True"/>
    <begin value="2400.0"/>
</configuration>
-->

<!-- generated on 2025-04-05 20:45:39 by Eclipse SUMO duarouter Version 1.22.0
<duarouterConfiguration xmlns:xsi="http://www.w3.org/2001/XMLSchema-instance" xsi:noNamespaceSchemaLocation="http://sumo.dlr.de/xsd/duarouterConfiguration.xsd">

    <input>
        <net-file value="additional_data_collector/data_collector/sumo_config/holon.net.xml"/>
        <route-files value="trips.trips.xml"/>
    </input>

    <output>
        <output-file value="additional_data_collector/data_collector/sumo_config/holon_evening.trips.xml"/>
        <alternatives-output value="NUL"/>
    </output>

    <time>
        <begin value="2400.0"/>
        <end value="3600.0"/>
    </time>

    <report>
        <no-warnings value="true"/>
        <ignore-errors value="true"/>
        <no-step-log value="true"/>
    </report>

</duarouterConfiguration>
-->

<routes xmlns:xsi="http://www.w3.org/2001/XMLSchema-instance" xsi:noNamespaceSchemaLocation="http://sumo.dlr.de/xsd/routes_file.xsd">
    <vehicle id="0" depart="2400.00">
        <route edges="51406031#0 51406031#1 51406032 51406031#10 861292745#5 861288934#0 861288934#1 861124515#1 118874859#0 118874859#1 32015932#10 32015932#11 118761048#5 118761048#6 118761048#7 1227518040#0 1227518040#1 1227518038#3 1227518038#4 1227518042 -30715596#2 -30715596#1 -30715596#0 612731147#0 330712035#0 330712035#1 -330712035#1"/>
    </vehicle>
    <vehicle id="1" depart="2401.00">
        <route edges="118761083 709861210#0 709861210#1 709861210#2 709861210#3 709861226 709861224 709861222 709861223#0 709861223#1 709861223#2 709861223#3 709861223#4 709861223#5 109805922#8 109805922#9 109805922#10 109805922#11 109805922#12 109805922#13 109805922#14 109805922#15 109805922#16"/>
    </vehicle>
    <vehicle id="2" depart="2402.00">
        <route edges="51480630#1 51480630#2 51480630#3 51480630#4 51480630#5 51480630#6 -861275128#1 -861275128#0 51325746 861124802#5 709861200#0 709861200#1 709861203 709861220#0 709861220#1 709861221 861124518#5 861124518#6 861124518#7 861124518#0 861124501 861288928#0 861288928#1 51406035#0 51406035#1 51406035#2 51406035#3 51406035#4 51406035#5 51406035#6 51406035#7 51406035#8 51406035#9 51406035#10 51406035#11 51406035#12 51406035#13 51406035#14"/>
    </vehicle>
    <vehicle id="3" depart="2403.00">
        <route edges="861275128#5 861275128#6 861275128#7 861275128#8 -861275128#8 -861275128#7 -861275128#6 -861275128#5 -861275128#4 -861275128#3 -861275128#2 -861275128#1 -861275128#0 51325746 861124802#5 709861200#0 709861200#1 709861203 709861220#0 709861220#1 709861221 861124518#5 861288929 -861288930#6 -861288930#5 -861288930#4 -861288930#3 -861288930#2 -861288930#1 -861288930#0 709861205 861124517#4 861124517#5 861124517#6 861288932 -51406025#3 -51406025#2 -51406025#1 -51406025#0"/>
    </vehicle>
    <vehicle id="4" depart="2404.00">
        <route edges="28536320#1 28536320#2 28536320#3 28536320#4 28536320#5 28536320#6 28536320#7 28536320#8 28536320#9 182916582 182916583 182916585#0 182916585#1 709861210#0 32015932#2 32015932#3 32015932#4 32015932#5 32015932#6 32015932#7 32015932#8 32015932#9 32015932#10 32015932#11 118761048#5 118761048#6 118761048#7 118761048#8 118761048#9 118761048#10 118761048#11 118761048#12 118761048#13 118761048#14 109805916 961366012 961366014#0 50823041#1 50823041#2 -50823041#2"/>
    </vehicle>
    <vehicle id="5" depart="2405.00">
        <route edges="109805922#17 109805922#18 229920457#0 229920457#1 229920457#2 229920457#3 229920457#4 229920457#5 229920457#6 229920457#7 229920457#8 229920457#9 229920457#10 109805916 961366012 961366014#0 50823041#1 50823041#2 50823041#3 50823041#4"/>
    </vehicle>
    <vehicle id="6" depart="2406.00">
        <route edges="-50823041#1 50823041#1 229913531#9 229913531#10 229913531#11 961366009 961366015#0 229913537#1 229913537#2 229913537#3 1227518036#1 118761048#8 118761060#0 118761060#1 861124516#1 51406633 861292745#0 861292745#1 861292745#2 861292745#3 861292745#4 -861292745#4 -861292745#3 -861292745#2 -861292745#1"/>
    </vehicle>
    <vehicle id="7" depart="2407.00">
        <route edges="51406031#6 51406031#7 51406031#8 51406031#9 51406031#10 861292745#5 861288934#0 861288934#1 861124515#1 861124515#2 861124515#3 861288931 -861288928#9 -861288928#8 -861288928#7 -861288928#6 -861288928#5 -861288928#4 -861288928#3 -861288928#2 -861288928#1 -861288928#0 50822986 861124518#2 861124518#3 118761051 709861228#0 709861228#1 709861201 709861224 709861222 709861223#0 709861223#1 709861223#2 709861223#3 709861223#4 709861223#5 109805922#8 109805922#9 118876550#0 118876550#1 861124798#5 861275124 -51325619#4 -51325619#3 -51325619#2 -51325619#1 -51325619#0 51325619#0 51325619#1 51325619#2 51325619#3"/>
    </vehicle>
    <vehicle id="8" depart="2408.00">
        <route edges="109805922#18 229920457#0 229920457#1 229920457#2 229920457#3 229920457#4 229920457#5 229920457#6 229920457#7 229920457#8 229920457#9 229920457#10 229913537#0 229913537#1 229913537#2 229913537#3 229913537#4 229913537#5 229913537#6 51405899#1 51405899#2 51405899#3 51405899#4 51405899#5 50848943#0 -51405896#3 -51405896#2 -51405896#1 -51405896#0 51405896#0 51405896#1 51405896#2"/>
    </vehicle>
    <vehicle id="9" depart="2409.00">
        <route edges="709861225#2 709861225#3 861124802#1 861124802#2 861124802#3 861124802#4 861124802#5 709861200#0 709861200#1 709861203 709861219 709861227 709861229#0 709861229#1 32015932#3 32015932#4 32015932#5 50812932 118876533#0 118876533#1 118876547#0 -182916581#2 -182916581#1 -182916581#0"/>
    </vehicle>
    <vehicle id="10" depart="2410.00">
        <route edges="709861225#0 709861225#1 709861225#2 709861225#3 861124802#1 861124802#2 861124802#3 861124802#4 861124802#5 709861200#0 709861200#1 709861203 709861219 709861227 709861229#0 709861229#1 32015932#3 32015932#4 32015932#5 32015932#6 32015932#7 32015932#8 32015932#9 32015932#10 32015932#11 51406510#0 51406510#1 51406510#2"/>
    </vehicle>
    <vehicle id="11" depart="2411.00">
        <route edges="182916583 182916585#0 182916585#1 709861210#0 32015932#2 32015932#3 32015932#4 32015932#5 32015932#6 118874858#0 118874858#1 861124515#3 861288931 -861288928#9 -861288928#8 -861288928#7 -861288928#6 -861288928#5 -861288928#4 -861288928#3 -861288928#2 -861288928#1"/>
    </vehicle>
    <vehicle id="12" depart="2412.00">
        <route edges="861292745#1 861292745#2 861292745#3 861292745#4 861292745#5 861288934#0 861288934#1 861124515#1 118874859#0 118874859#1 32015932#10 32015932#11 51406510#0 229913537#5 229913537#6 51405899#1 51405899#2 51405899#3 51405899#4 51405899#5 50848943#0 50848943#1 50848943#2 50848943#3 50848943#4 182823415#0"/>
    </vehicle>
    <vehicle id="13" depart="2413.00">
        <route edges="-861124487#0 -861288933#3 -861288933#2 -861288933#1 -861288933#0 -51406026#4 -51406026#3 -51406026#2"/>
    </vehicle>
    <vehicle id="14" depart="2414.00">
        <route edges="861124736 861124802#3 861124802#4 861124802#5 709861200#0 709861200#1 709861203 709861220#0 709861220#1 709861221 861124518#5 861288929 -861288930#6 -861288930#5 -861288930#4 -861288930#3 -861288930#2 -861288930#1 -861288930#0 709861205 861124517#4 861124517#5 861124517#6 861288932 -51406025#3 -51406025#2 -51406025#1 -51406025#0 51406025#0 51406025#1 51406025#2"/>
    </vehicle>
    <vehicle id="15" depart="2415.00">
        <route edges="709861225#1 709861225#2 709861225#3 861124802#1 861124802#2 861124802#3 861124790 861275128#0 861275128#1 861275128#2 861275128#3 861275128#4 861275128#5 861275128#6 861275128#7 861275128#8 -861275121 51480630#0 51480630#1 51480630#2 51480630#3"/>
    </vehicle>
    <vehicle id="17" depart="2417.00">
        <route edges="229913531#8 229913531#9 229913531#10 229913531#11 961366009 961366015#0 229913537#1 229913537#2 1227518040#1 1227518038#3 1227518038#4 1227518038#5 1227518038#0 1227518037 51405762"/>
    </vehicle>
    <vehicle id="18" depart="2418.00">
        <route edges="861124498#0 861124498#1 861124498#2 109805922#4 109805922#5 109805922#6 229913533#1 229913533#2 229913533#3 229913533#4 709861212#0 709861212#1 709861221 861124518#5 861124518#6 861124518#7 861124518#0 861124501 861288928#0 861288928#1 51406035#0 51406030#0 51406030#1 51406030#2"/>
    </vehicle>
    <vehicle id="19" depart="2419.00">
        <route edges="861275119#4 861275119#5 861275119#6 861275119#7 861275127#0 861275127#1 861275127#2 32016348#5 32016348#6 32015932#0 32015932#1 32015932#2 32015932#3 32015932#4 32015932#5 32015932#6 32015932#7 32015932#8 32015932#9 32015932#10 32015932#11 118761048#5 118761048#6 118761048#7 1227518040#0 1227518040#1 1227518038#3 -51405774#2 -51405774#1 -51405774#0 51405774#0 51405774#1"/>
    </vehicle>
    <vehicle id="20" depart="2420.00">
        <route edges="51406035#7 51406035#8 51406035#9 51406035#10 51406035#11 51406035#12 51406035#13 51406035#14 51406035#15 51406035#16 861288928#9 861124507 861124515#5 861124515#6 861124515#7 861124515#0 861124515#1 118874859#0 118874859#1 32015932#10 32015932#11 118761048#5 118761048#6 118761048#7 118761048#8 118761048#9 118761048#10 118761048#11 118761048#12 118761048#13 118761048#14 109805916 961366012 961366013 961366010 50848484#0 -50848484#0"/>
    </vehicle>
    <vehicle id="21" depart="2421.00">
        <route edges="109805922#5 109805922#6 229913533#1 229913533#2 229913533#3 229913533#4 709861230 709861219 709861227 709861229#0 709861229#1 32015932#3 32015932#4 32015932#5 50812932 118876533#0 118876533#1 118876547#0 118876547#1 118874857 118874855 -118874855 118874856#0 118874856#1"/>
    </vehicle>
    <vehicle id="22" depart="2422.00">
        <route edges="-51406026#2 -51406026#1 -51406026#0 51406026#0 51406026#1 51406026#2 51406026#3 51406026#4 861288933#0 861288933#1 861288933#2 861288933#3 861288933#4 861288933#5 861288933#6 861288933#7 861288933#8 861288933#9 861124504 861124517#1 861124517#2 861124517#3 861124517#4 861124498#0 861124498#1 861124498#2 109805922#4"/>
    </vehicle>
    <vehicle id="23" depart="2423.00">
        <route edges="-861275119#2 -861275119#1 -861275119#0 861124736 861124802#3 861124802#4 861124802#5 709861200#0 709861200#1 709861203 709861219 709861227 709861229#0 118761091#0"/>
    </vehicle>
    <vehicle id="25" depart="2425.00">
        <route edges="229913531#3 229913531#4 229913531#5 229913531#6 229913531#7 229913531#8 229913531#9 229913531#10 229913531#11 961366009 961366015#0 961366015#1 118761048#14 109805916"/>
    </vehicle>
    <vehicle id="26" depart="2426.00">
        <route edges="118761072#1 -861275127#4 -861275127#3 32016348#5 32016348#6 32015932#0 32015932#1 32015932#2 32015932#3 32015932#4 32015932#5 32015932#6 32015932#7 32015932#8 32015932#9 32015932#10 32015932#11 118761048#5 118761048#6 118761048#7 118761048#8 118761060#0 118761060#1 861124516#1 861124516#2 861124516#3 861124516#4 861124505 861288933#0 861288933#1"/>
    </vehicle>
    <vehicle id="27" depart="2427.00">
        <route edges="51406031#4 51406031#5 51406031#6 51406031#7 51406031#8 51406031#9 51406031#10 -861292745#4 -861292745#3 -861292745#2 -861292745#1 -861292745#0 861124506 861124516#3 861124516#4 861124505 -51406026#4 -51406026#3 -51406026#2 -51406026#1 -51406026#0 51406026#0 51406026#1 51406026#2 51406026#3"/>
    </vehicle>
    <vehicle id="28" depart="2428.00">
        <route edges="-861288930#5 -861288930#4 -861288930#3 -861288930#2 -861288930#1 51406033#0 51406033#1 51406034#0 51406034#1 51406033#10 51406033#11 861288930#6 861124502 861124518#7 861124518#0 861124518#1 861124518#2 861124518#3 118761051 709861228#0 709861228#1 709861201 709861225#0 709861225#1 709861225#2 709861225#3 861124802#1 861124802#2 861124802#3 861124790 861275128#0 861275128#1 861275128#2 861275128#3 861275128#4 861275128#5 861275128#6 861275128#7 861275128#8 -861275121 51480630#0 51480630#1 51480630#2"/>
    </vehicle>
    <vehicle id="31" depart="2431.00">
        <route edges="51405763#0 51405763#1 51405763#2 -50848484#0 961366008 961366015#0 961366015#1 109805922#0 109805922#1 109805922#2 109805922#3 109805922#4 109805922#5 109805922#6 229913533#1 229913533#2 229913533#3 229913533#4 709861212#0 709861212#1 709861221 861124518#5 861124518#6 861124518#7 861124518#0 861124501 861288928#0 861288928#1 51406035#0 51406035#1 51406035#2 51406035#3 51406035#4"/>
    </vehicle>
    <vehicle id="32" depart="2432.00">
        <route edges="861124506 861124516#3 861124516#4 861124505 861288933#0 861288933#1 861288933#2 861288933#3 861288933#4 861288933#5 861288933#6 861288933#7 861288933#8 861288933#9 861124504 861124517#1 861124517#2 861124503 861288930#0 861288930#1 861288930#2 861288930#3 861288930#4 861288930#5 861288930#6 861124502 861124518#7 861124518#0 861124518#1 861124518#2 861124518#3 118761051 709861228#0 709861228#1 709861201 709861225#0 709861225#1 709861225#2 709861225#3 861124802#1 861124802#2 861124802#3 861124802#4 861124802#5 709861200#0 709861213"/>
    </vehicle>
    <vehicle id="33" depart="2433.00">
        <route edges="109805922#6 109805922#7 709861223#6 229920457#9 229920457#10 109805916 961366012 961366014#0 50823041#1 50823041#2 50823041#3 -50823041#3"/>
    </vehicle>
    <vehicle id="34" depart="2434.00">
        <route edges="1227518036#1 118761048#8 118761060#0 118761060#1"/>
    </vehicle>
    <vehicle id="35" depart="2435.00">
        <route edges="109805922#12 109805922#13 109805922#14 118761072#5 229920457#4 229920457#5 229920457#6 229920457#7 229920457#8 229920457#9 229920457#10 229913537#0 229913537#1 229913537#2 229913537#3 1227518036#1 118761048#8 118761060#0 118761060#1 861124516#1 861124516#2 861124516#3 861124516#4 861124505 861288933#0 861288933#1 861288933#2 861288933#3 861288933#4"/>
    </vehicle>
    <vehicle id="36" depart="2436.00">
        <route edges="861275127#1 861275127#2 32016348#5 32016348#6 32015932#0 32015932#1 709861210#1 709861210#2 709861210#3 709861226 709861224 709861222 709861223#0 709861223#1 709861223#2 709861223#3 118876556#0 118876556#1"/>
    </vehicle>
    <vehicle id="37" depart="2437.00">
        <route edges="51406031#9 51406031#10 -861292745#4 -861292745#3 -861292745#2 -861292745#1 -861292745#0 861124506 861124516#3 861124516#4 861124516#5 861124516#6 51406623 118761048#10 118761048#11 118761048#12 118761048#13 118761048#14 229913537#0 229913537#1 229913537#2"/>
    </vehicle>
    <vehicle id="38" depart="2438.00">
        <route edges="861288928#7 861288928#8 -861288928#8 -861288928#7 -861288928#6 -861288928#5 -861288928#4 -861288928#3 -861288928#2 -861288928#1 -861288928#0 50822986 861124518#2 861124518#3 118761051 709861208#0 709861208#1 709861229#0 709861229#1 51432218 182916585#1 709861210#0 32015932#2"/>
    </vehicle>
    <vehicle id="39" depart="2439.00">
        <route edges="118761072#0 118761072#1 -861275127#4 -861275127#3 32016348#5 32016348#6 32015932#0 32015932#1 32015932#2 32015932#3 32015932#4 32015932#5 32015932#6 32015932#7 32015932#8 32015932#9 32015932#10 32015932#11 118761048#5 118761048#6 118761048#7 118761048#8 118761048#9 118761048#10 118761048#11 118761048#12"/>
    </vehicle>
    <vehicle id="40" depart="2440.00">
        <route edges="51405765 -50823041#3 -50823041#2 229913531#9 229913531#10 229913531#11 961366009 961366015#0 229913537#1 229913537#2 229913537#3 1227518036#1 118761048#8 118761048#9"/>
    </vehicle>
    <vehicle id="41" depart="2441.00">
        <route edges="51405772#2 51405772#3 51405774#2 1227518038#4 1227518038#5 1227518038#0 1227518038#1 1227518036#0 1227518036#1 118761048#8 118761048#9 118761048#10 118761048#11 118761048#12 118761048#13 109805922#0 109805922#1 109805922#2 109805922#3 109805922#4 109805922#5 109805922#6 109805922#7 109805922#8 109805922#9 118876550#0 118876550#1 861124798#5 861124798#6 861124798#0 861124798#1 861124797 861275129#0 861275129#1"/>
    </vehicle>
    <vehicle id="43" depart="2443.00">
        <route edges="961366015#0 961366015#1 118761048#14 109805916 961366012 961366014#0 50823041#1 50823041#2 50823041#3 50823041#4 50823041#5 50823041#6"/>
    </vehicle>
    <vehicle id="45" depart="2445.00">
        <route edges="-861275119#7 -861275119#6 -861275119#5 -861275119#4 -861275119#3 -861275119#2 -861275119#1 -861275119#0 861124736 861124802#3 861124802#4 861124802#5 709861200#0 709861200#1 709861203 709861219 709861227 709861229#0 709861229#1 32015932#3 32015932#4 32015932#5 32015932#6 32015932#7 32015932#8 32015932#9 32015932#10 32015932#11 118761048#5 118761048#6 118761048#7 118761048#8 118761060#0 118761060#1 861124516#1 51406633 861292745#0 51406031#0 51406031#1 51406032 51406031#10"/>
    </vehicle>
    <vehicle id="46" depart="2446.00">
        <route edges="709861223#0 709861223#1 709861223#2 709861223#3 709861223#4 709861223#5 709861223#6 229920457#9 229920457#10 229913537#0 229913537#1 229913537#2 1227518040#1 1227518038#3 1227518038#4 1227518042 -30715596#2 -30715596#1 -30715596#0 612731147#0 612731147#1 25999427#5 25999427#0 25999427#1 25999427#2 25999428"/>
    </vehicle>
    <vehicle id="47" depart="2447.00">
        <route edges="-51405774#1 -51405774#0 51405774#0 51405774#1 51405774#2 1227518038#4 1227518042 -30715596#2 -30715596#1 -30715596#0 612731147#0 612731147#1 25999427#5 25999427#0 -50823041#9 -50823041#8 -50823041#7 -50823041#6 -50823041#5 -50823041#4 -50823041#3 -50823041#2 229913531#9"/>
    </vehicle>
    <vehicle id="49" depart="2449.00">
        <route edges="961366008 961366015#0 961366015#1 109805922#0 109805922#1 109805922#2 109805922#3 109805922#4 109805922#5 109805922#6 229913533#1 229913533#2 229913533#3 229913533#4 709861230 709861219 709861201 709861225#0 709861225#1 709861225#2 709861225#3 861124802#1 51325753 861275119#0 861275119#1 861275119#2 861275119#3 861275119#4 861275119#5"/>
    </vehicle>
    <vehicle id="50" depart="2450.00">
        <route edges="-25999428 25999427#3 1227518039#0 1227518039#1 1227518039#2 30715596#0 30715596#1 30715596#2 1227518041 1227518038#0 1227518038#1 1227518036#0 229913537#4 229913537#5 32016261#5 28536320#0 28536320#1 28536320#2 28536320#3 28536320#4 28536320#5 28536320#6 28536320#7 28536320#8 28536320#9 182916582 182916583 182916585#0 182916585#1 709861210#0 709861210#1 709861210#2 709861210#3 709861211 709861225#1 709861225#2 709861225#3 861124802#1 861124802#2 861124802#3 861124790 861275128#0 861275128#1 861275128#2 861275128#3 861275128#4 861275128#5 861275128#6 861275128#7 861275128#8 861275126 51480629#0"/>
    </vehicle>
    <vehicle id="51" depart="2451.00">
        <route edges="51406035#0 51406030#0 51406030#1 51406030#2 51406030#3 51406030#4 51406030#5 51406035#15 51406035#16 861288928#9 861124507 861124515#5 861124515#6 861124515#7 861124515#0 861124515#1 118874859#0 118874859#1 32015932#10 32015932#11 51406510#0 229913537#5 229913537#6 51405899#1 51405899#2 51405899#3 51405899#4 51405899#5 50848943#0 50848943#1 50852212#0 50852212#1 50852212#2"/>
    </vehicle>
    <vehicle id="52" depart="2452.00">
        <route edges="118761072#1 -861275127#4 -861275127#3 32016348#5 32016348#6 32015932#0 32015932#1 32015932#2 32015932#3 32015932#4 32015932#5 32015932#6 32015932#7 32015932#8 32015932#9 32015932#10 32015932#11 118761048#5 118761048#6 118761048#7 118761048#8 118761060#0 118761060#1 861124516#1 51406633 861292745#0 51406031#0 51406031#1 51406031#2 51406031#3 51406031#4 51406031#5 51406031#6 51406031#7 51406031#8 51406031#9"/>
    </vehicle>
    <vehicle id="53" depart="2453.00">
        <route edges="-861275121 51480630#0 51480630#1 51480630#2 51480630#3 51480630#4 51480630#5 51480630#6 -861275128#1 -861275128#0 51325746 861124802#5 709861200#0 709861200#1 709861203 709861219 709861227 709861229#0 709861229#1 32015932#3 32015932#4 32015932#5 50812932 118876533#0 118876533#1 118876547#0 118876547#1 118876547#2 118876547#3 118874854 28536320#5 28536320#6"/>
    </vehicle>
    <vehicle id="54" depart="2454.00">
        <route edges="32015932#10 32015932#11 118761048#5 118761048#6 118761048#7 118761048#8 118761060#0 118761060#1 861124516#1 51406633 861292745#0 861292745#1 861292745#2 861292745#3 861292745#4 861292745#5 861288934#0 861288934#1"/>
    </vehicle>
    <vehicle id="55" depart="2455.00">
        <route edges="861275127#0 861275127#1 861275127#2 32016348#5 32016348#6 32015932#0 32015932#1 32015932#2 32015932#3 32015932#4 32015932#5 32015932#6 32015932#7 32015932#8 32015932#9 32015932#10 32015932#11 118761048#5 118761048#6 118761048#7 118761048#8 118761048#9"/>
    </vehicle>
    <vehicle id="56" depart="2456.00">
        <route edges="50823041#0 50823041#1 229913531#9 229913531#10 229913531#11 961366009 961366015#0 961366015#1 109805922#0 109805922#1 109805922#2 861124497#0 861124497#1 861124497#2 861124517#6 861124517#7 861124517#0 861124517#1 861124517#2 861124503 861288930#0 861288930#1 861288930#2 861288930#3 861288930#4 861288930#5 -861288930#5"/>
    </vehicle>
    <vehicle id="57" depart="2457.00">
        <route edges="861288928#6 861288928#7 861288928#8 -861288928#8 -861288928#7 -861288928#6 -861288928#5 -861288928#4 -861288928#3 -861288928#2 -861288928#1 -861288928#0 50822986 861124518#2 861124518#3 118761051 709861228#0 709861228#1 709861201 709861225#0 709861225#1 709861225#2 709861225#3 861124802#1 861124802#2 861124802#3 861124790 861275128#0 861275128#1 861275128#2 861275128#3 861275128#4 861275128#5 861275128#6 861275128#7 861275128#8 861275126"/>
    </vehicle>
    <vehicle id="58" depart="2458.00">
        <route edges="118876533#1 118876547#0 118876547#1 118876547#2 118876547#3 118874854 28536320#5 28536320#6 28536320#7 28536320#8 28536320#9 182916582 182916583 182916585#0 182916585#1 709861210#0 32015932#2 32015932#3 32015932#4 32015932#5 32015932#6 32015932#7 32015932#8 32015932#9 32015932#10 32015932#11 118761048#5 118761048#6 118761048#7 118761048#8 118761060#0 118761060#1 861124516#1 51406633 861292745#0 51406031#0 51406031#1 51406031#2 51406031#3 51406031#4 51406031#5 51406031#6 51406031#7 51406031#8"/>
    </vehicle>
    <vehicle id="60" depart="2460.00">
        <route edges="709861205 861124517#4 861124517#5 861124517#6 861288932 -861288933#9 -861288933#8 -861288933#7 -861288933#6 -861288933#5 -861288933#4 -861288933#3 -861288933#2 -861288933#1 -861288933#0 51325473"/>
    </vehicle>
    <vehicle id="61" depart="2461.00">
        <route edges="709861212#0 709861212#1 709861221 861124518#5 861124518#6 861124518#7 861124518#0 861124518#1 861124518#2 861124518#3 118761051 709861208#0 709861208#1 709861229#0 709861229#1 32015932#3 32015932#4 32015932#5 32015932#6 32015932#7 32015932#8 32015932#9 32015932#10 32015932#11 51406510#0 229913537#5 229913537#6 51405899#1 50849311#0 50849311#1"/>
    </vehicle>
    <vehicle id="62" depart="2462.00">
        <route edges="-118874854 118876547#4 118876547#0 118876547#1 118876547#2 118876547#3 118874854 28536320#5 28536320#6 28536320#7 28536320#8 28536320#9 182916582 182916583 182916585#0 182916585#1 709861210#0 32015932#2 32015932#3 32015932#4 32015932#5 32015932#6 32015932#7 32015932#8 32015932#9 32015932#10 32015932#11 118761048#5 118761048#6 118761048#7 1227518040#0 1227518040#1 1227518038#3 1227518038#4 1227518042 -30715596#2 -30715596#1 -30715596#0 612731147#0 330712035#0 1227518039#2"/>
    </vehicle>
    <vehicle id="63" depart="2463.00">
        <route edges="-316449842 -50823041#2 229913531#9 229913531#10 229913531#11 961366009 961366015#0 961366015#1 109805922#0 109805922#1 109805922#2 861124497#0 861124497#1 861124497#2 861124517#6 861124517#7 861124517#0 861124517#1 861124517#2 861124503 861288930#0 861288930#1 861288930#2 861288930#3 861288930#4 861288930#5"/>
    </vehicle>
    <vehicle id="64" depart="2464.00">
        <route edges="861275127#2 861275127#3 861275127#4 -861275127#4 -861275127#3 -861275127#2 -861275127#1 -861275127#0 -861275119#7 -861275119#6 -861275119#5 -861275119#4 -861275119#3 -861275119#2 -861275119#1 -861275119#0 861124736 861124802#3 861124802#4 861124802#5 709861200#0 709861200#1 709861203 709861220#0 709861220#1 709861221 861124518#5 861288929 861124502"/>
    </vehicle>
    <vehicle id="65" depart="2465.00">
        <route edges="118876554#0 118876554#1 109805922#11 109805922#12 109805922#13 109805922#14 118761072#5 229920457#4 229920457#5 229920457#6 229920457#7 229920457#8 229913533#0 109805922#7 109805922#8 109805922#9 118876550#0 118876550#1 861124798#5 861275124 -51325619#4 -51325619#3 -51325619#2 -51325619#1"/>
    </vehicle>
    <vehicle id="66" depart="2466.00">
        <route edges="861275127#2 32016348#5 32016348#6 32015932#0 32015932#1 32015932#2 32015932#3 32015932#4 32015932#5 32015932#6 32015932#7 32015932#8 32015932#9 32015932#10 32015932#11 118761048#5 118761048#6 118761048#7 118761048#8 118761060#0 118761060#1 861124516#1 861124516#2 861124516#3 861124516#4 861124505 861288933#0 861288933#1 861288933#2 861288933#3 861288933#4 861288933#5 861288933#6 861288933#7"/>
    </vehicle>
    <vehicle id="69" depart="2469.00">
        <route edges="709861208#1 709861229#0 709861229#1 51432218 182916585#1 709861210#0 709861210#1 709861210#2 709861210#3 709861211 709861225#1 709861225#2 709861225#3 861124802#1 51325753 861275119#0 861275119#1 861275119#2 861275119#3 861275119#4 861275119#5 861275119#6 861275119#7 861275127#0 861275127#1 861275127#2 861275127#3 861275127#4 -861275127#4 -861275127#3 -861275127#2 -861275127#1"/>
    </vehicle>
    <vehicle id="70" depart="2470.00">
        <route edges="32016261#3 32016261#4 32016261#5 28536320#0 28536320#1 28536320#2 28536320#3 28536320#4 28536320#5 28536320#6 28536320#7 28536320#8 28536320#9 182916582 182916583 182916585#0 182916585#1 709861210#0 709861210#1 709861210#2 709861210#3 709861211 709861225#1 709861225#2 709861225#3 861124802#1 51325753"/>
    </vehicle>
    <vehicle id="71" depart="2471.00">
        <route edges="118761072#0 118761072#1 -861275127#4 -861275127#3 -861275127#2 -861275127#1 -861275127#0 -861275119#7 -861275119#6 -861275119#5 -861275119#4 -861275119#3 -861275119#2 -861275119#1 -861275119#0 861124736 861124802#3 861124802#4 861124802#5 861124802#6 861124802#0 861124802#1 51325753 861275119#0 861275119#1 861275119#2 861275119#3 861275119#4 861275119#5 861275119#6 861275119#7 861275127#0"/>
    </vehicle>
    <vehicle id="72" depart="2472.00">
        <route edges="28536320#1 28536320#2 28536320#3 28536320#4 28536320#5 28536320#6 28536320#7 28536320#8 28536320#9 182916582 182916583 182916585#0 182916585#1 709861210#0 32015932#2 32015932#3 32015932#4 32015932#5 32015932#6 32015932#7 32015932#8 32015932#9 32015932#10 32015932#11 118761048#5 118761048#6 118761048#7 118761048#8 118761048#9 118761048#10 118761048#11 118761048#12 118761048#13 109805922#0 109805922#1"/>
    </vehicle>
    <vehicle id="74" depart="2474.00">
        <route edges="107456915 -1227518037 1227518038#1 1227518036#0 1227518036#1 118761048#8 118761048#9 118761048#10 118761048#11 118761048#12 118761048#13 109805922#0 109805922#1 109805922#2 109805922#3 109805922#4 109805922#5 109805922#6 109805922#7 109805922#8 109805922#9 118876550#0 118876550#1 861124798#5 861124798#6 861124798#0 861124798#1 861124798#2 861124798#3 118876554#0 118876554#1"/>
    </vehicle>
    <vehicle id="76" depart="2476.00">
        <route edges="30715268 25999427#2 25999427#3 25999427#4 25999427#5 25999427#0 -50823041#9 -50823041#8 -50823041#7 -50823041#6 -50823041#5 -50823041#4 -50823041#3 -50823041#2 229913531#9 229913531#10 229913531#11 961366010 50848484#0"/>
    </vehicle>
    <vehicle id="77" depart="2477.00">
        <route edges="-861275127#3 861275127#3 861275127#4 118761072#2 118761072#3 118761072#4 109805922#15 109805922#16"/>
    </vehicle>
    <vehicle id="78" depart="2478.00">
        <route edges="182916582 182916583 182916585#0 182916585#1 709861210#0 32015932#2 32015932#3 32015932#4 32015932#5 32015932#6 32015932#7 32015932#8 32015932#9 32015932#10 32015932#11 51406510#0 229913537#5 229913537#6 51405899#1 51405899#2 51405899#3 51405899#4 51405899#5 50848943#0 -51405896#3 -51405896#2 -51405896#1 -51405896#0 51405896#0 51405896#1 51405896#2"/>
    </vehicle>
    <vehicle id="79" depart="2479.00">
        <route edges="109805922#7 109805922#8 109805922#9 109805922#10 109805922#11 109805922#12 109805922#13 109805922#14"/>
    </vehicle>
    <vehicle id="81" depart="2481.00">
        <route edges="109805922#6 229913533#1 229913533#2 229913533#3 229913533#4 709861212#0 709861212#1 709861221 861124518#5 861124518#6 861124518#7 861124518#0 861124501 861288928#0 861288928#1"/>
    </vehicle>
    <vehicle id="82" depart="2482.00">
        <route edges="861275119#2 861275119#3 861275119#4 861275119#5 861275119#6 861275119#7 861275127#0 861275127#1 861275127#2 32016348#5 32016348#6 32015932#0 32015932#1 32015932#2 32015932#3 32015932#4 32015932#5 32015932#6 32015932#7 32015932#8 32015932#9 32015932#10 32015932#11 118761048#5 118761048#6 118761048#7 118761048#8 118761048#9 118761048#10 118761048#11 118761048#12 118761048#13 118761048#14 109805916 961366012 961366013 961366010 50848484#0 50848484#1 51405768#0 51405768#1 51405770 -51405769#2 -51405769#1"/>
    </vehicle>
    <vehicle id="83" depart="2483.00">
        <route edges="118761048#10 118761048#11 118761048#12 118761048#13 109805922#0 109805922#1 109805922#2 109805922#3 109805922#4 109805922#5 109805922#6 229913533#1 229913533#2 229913533#3 229913533#4 709861212#0 709861212#1 709861221 861124518#5 861124518#6 861124518#7 861124518#0 861124501 861288928#0 861288928#1 51406035#0 51406035#1"/>
    </vehicle>
    <vehicle id="84" depart="2484.00">
        <route edges="109805922#14 118761072#5 229920457#4 229920457#5 32016348#0 32016348#1 32016348#2 32016348#3 32016348#4 861275127#3 861275127#4 -861275127#4"/>
    </vehicle>