<?xml version="1.0" encoding="UTF-8"?>

<!-- generated on 2025-03-29 17:57:26.233415 by randomTrips.py v1_22_0+0002-63e50f52594
<configuration>
    <net-file value="additional_data_collector/data_collector/sumo_config/holon.net.xml"/>
    <output-trip-file value="additional_data_collector/data_collector/sumo_config/holon.rou.xml"/>
    <route-file value="additional_data_collector/data_collector/sumo_config/holon.trips.xml"/>
    <validate value="True"/>
    <end value="1000.0"/>
</configuration>
-->

<!-- generated on 2025-03-29 17:57:26 by Eclipse SUMO duarouter Version 1.22.0
<duarouterConfiguration xmlns:xsi="http://www.w3.org/2001/XMLSchema-instance" xsi:noNamespaceSchemaLocation="http://sumo.dlr.de/xsd/duarouterConfiguration.xsd">

    <input>
        <net-file value="additional_data_collector/data_collector/sumo_config/holon.net.xml"/>
        <route-files value="additional_data_collector/data_collector/sumo_config/holon.rou.xml"/>
    </input>

    <output>
        <output-file value="additional_data_collector/data_collector/sumo_config/holon.rou.xml.tmp"/>
        <alternatives-output value="NUL"/>
        <write-trips value="true"/>
    </output>

    <time>
        <begin value="0"/>
        <end value="1000.0"/>
    </time>

    <report>
        <no-warnings value="true"/>
        <ignore-errors value="true"/>
        <no-step-log value="true"/>
    </report>

</duarouterConfiguration>
-->

<routes xmlns:xsi="http://www.w3.org/2001/XMLSchema-instance" xsi:noNamespaceSchemaLocation="http://sumo.dlr.de/xsd/routes_file.xsd">
    <trip id="0" depart="0.00" from="51406031#0" to="-330712035#1"/>
    <trip id="1" depart="1.00" from="118761083" to="109805922#16"/>
    <trip id="2" depart="2.00" from="51480630#1" to="51406035#14"/>
    <trip id="3" depart="3.00" from="861275128#5" to="-51406025#0"/>
    <trip id="4" depart="4.00" from="28536320#1" to="-50823041#2"/>
    <trip id="5" depart="5.00" from="109805922#17" to="50823041#4"/>
    <trip id="6" depart="6.00" from="-50823041#1" to="-861292745#1"/>
    <trip id="7" depart="7.00" from="51406031#6" to="51325619#3"/>
    <trip id="8" depart="8.00" from="109805922#18" to="51405896#2"/>
    <trip id="9" depart="9.00" from="709861225#2" to="-182916581#0"/>
    <trip id="10" depart="10.00" from="709861225#0" to="51406510#2"/>
    <trip id="11" depart="11.00" from="182916583" to="-861288928#1"/>
    <trip id="12" depart="12.00" from="861292745#1" to="182823415#0"/>
    <trip id="13" depart="13.00" from="-861124487#0" to="-51406026#2"/>
    <trip id="14" depart="14.00" from="861124736" to="51406025#2"/>
    <trip id="15" depart="15.00" from="709861225#1" to="51480630#3"/>
    <trip id="17" depart="17.00" from="229913531#8" to="51405762"/>
    <trip id="18" depart="18.00" from="861124498#0" to="51406030#2"/>
    <trip id="19" depart="19.00" from="861275119#4" to="51405774#1"/>
    <trip id="20" depart="20.00" from="51406035#7" to="-50848484#0"/>
    <trip id="21" depart="21.00" from="109805922#5" to="118874856#1"/>
    <trip id="22" depart="22.00" from="-51406026#2" to="109805922#4"/>
    <trip id="23" depart="23.00" from="-861275119#2" to="118761091#0"/>
    <trip id="25" depart="25.00" from="229913531#3" to="109805916"/>
    <trip id="26" depart="26.00" from="118761072#1" to="861288933#1"/>
    <trip id="27" depart="27.00" from="51406031#4" to="51406026#3"/>
    <trip id="28" depart="28.00" from="-861288930#5" to="51480630#2"/>
    <trip id="31" depart="31.00" from="51405763#0" to="51406035#4"/>
    <trip id="32" depart="32.00" from="861124506" to="709861213"/>
    <trip id="33" depart="33.00" from="109805922#6" to="-50823041#3"/>
    <trip id="34" depart="34.00" from="1227518036#1" to="118761060#1"/>
    <trip id="35" depart="35.00" from="109805922#12" to="861288933#4"/>
    <trip id="36" depart="36.00" from="861275127#1" to="118876556#1"/>
    <trip id="37" depart="37.00" from="51406031#9" to="229913537#2"/>
    <trip id="38" depart="38.00" from="861288928#7" to="32015932#2"/>
    <trip id="39" depart="39.00" from="118761072#0" to="118761048#12"/>
    <trip id="40" depart="40.00" from="51405765" to="118761048#9"/>
    <trip id="41" depart="41.00" from="51405772#2" to="861275129#1"/>
    <trip id="43" depart="43.00" from="961366015#0" to="50823041#6"/>
    <trip id="45" depart="45.00" from="-861275119#7" to="51406031#10"/>
    <trip id="46" depart="46.00" from="709861223#0" to="25999428"/>
    <trip id="47" depart="47.00" from="-51405774#1" to="229913531#9"/>
    <trip id="49" depart="49.00" from="961366008" to="861275119#5"/>
    <trip id="50" depart="50.00" from="-25999428" to="51480629#0"/>
    <trip id="51" depart="51.00" from="51406035#0" to="50852212#2"/>
    <trip id="52" depart="52.00" from="118761072#1" to="51406031#9"/>
    <trip id="53" depart="53.00" from="-861275121" to="28536320#6"/>
    <trip id="54" depart="54.00" from="32015932#10" to="861288934#1"/>
    <trip id="55" depart="55.00" from="861275127#0" to="118761048#9"/>
    <trip id="56" depart="56.00" from="50823041#0" to="-861288930#5"/>
    <trip id="57" depart="57.00" from="861288928#6" to="861275126"/>
    <trip id="58" depart="58.00" from="118876533#1" to="51406031#8"/>
    <trip id="60" depart="60.00" from="709861205" to="51325473"/>
    <trip id="61" depart="61.00" from="709861212#0" to="50849311#1"/>
    <trip id="62" depart="62.00" from="-118874854" to="1227518039#2"/>
    <trip id="63" depart="63.00" from="-316449842" to="861288930#5"/>
    <trip id="64" depart="64.00" from="861275127#2" to="861124502"/>
    <trip id="65" depart="65.00" from="118876554#0" to="-51325619#1"/>
    <trip id="66" depart="66.00" from="861275127#2" to="861288933#7"/>
    <trip id="69" depart="69.00" from="709861208#1" to="-861275127#1"/>
    <trip id="70" depart="70.00" from="32016261#3" to="51325753"/>
    <trip id="71" depart="71.00" from="118761072#0" to="861275127#0"/>
    <trip id="72" depart="72.00" from="28536320#1" to="109805922#1"/>
    <trip id="74" depart="74.00" from="107456915" to="118876554#1"/>
    <trip id="76" depart="76.00" from="30715268" to="50848484#0"/>
    <trip id="77" depart="77.00" from="-861275127#3" to="109805922#16"/>
    <trip id="78" depart="78.00" from="182916582" to="51405896#2"/>
    <trip id="79" depart="79.00" from="109805922#7" to="109805922#14"/>
    <trip id="81" depart="81.00" from="109805922#6" to="861288928#1"/>
    <trip id="82" depart="82.00" from="861275119#2" to="-51405769#1"/>
    <trip id="83" depart="83.00" from="118761048#10" to="51406035#1"/>
    <trip id="84" depart="84.00" from="109805922#14" to="-861275127#4"/>
    <trip id="85" depart="85.00" from="861288933#0" to="51405772#0"/>
    <trip id="86" depart="86.00" from="32016261#2" to="709861222"/>
    <trip id="87" depart="87.00" from="709861225#1" to="-861288933#5"/>
    <trip id="88" depart="88.00" from="-861124784#1" to="28536320#4"/>
    <trip id="89" depart="89.00" from="28536320#2" to="32015932#7"/>
    <trip id="90" depart="90.00" from="51480627" to="51406035#12"/>
    <trip id="92" depart="92.00" from="229920457#1" to="182823425"/>
    <trip id="93" depart="93.00" from="861275119#4" to="118761048#13"/>
    <trip id="94" depart="94.00" from="-861288933#9" to="316449853#1"/>
    <trip id="95" depart="95.00" from="28536320#1" to="118761091#1"/>
    <trip id="96" depart="96.00" from="118761048#4" to="861288930#1"/>
    <trip id="97" depart="97.00" from="316449842" to="861275119#5"/>
    <trip id="98" depart="98.00" from="51325619#4" to="-50848943#2"/>
    <trip id="99" depart="99.00" from="961366015#1" to="861124505"/>
    <trip id="100" depart="100.00" from="961366006" to="861288930#3"/>
    <trip id="101" depart="101.00" from="861124784#0" to="-861288928#8"/>
    <trip id="102" depart="102.00" from="32016348#4" to="109805922#10"/>
    <trip id="103" depart="103.00" from="229920457#0" to="-51325619#2"/>
    <trip id="104" depart="104.00" from="229913531#8" to="961366014#2"/>
    <trip id="105" depart="105.00" from="118761072#0" to="709861222"/>
    <trip id="106" depart="106.00" from="32015932#11" to="25999428"/>
    <trip id="107" depart="107.00" from="861292745#1" to="961366014#9"/>
    <trip id="108" depart="108.00" from="51405763#0" to="51480627"/>
    <trip id="109" depart="109.00" from="-861288928#5" to="118874859#1"/>
    <trip id="110" depart="110.00" from="961366006" to="51405774#2"/>
    <trip id="111" depart="111.00" from="51325473" to="709861200#0"/>
    <trip id="112" depart="112.00" from="-51325619#3" to="51405893#2"/>
    <trip id="113" depart="113.00" from="50823041#1" to="861275119#0"/>
    <trip id="114" depart="114.00" from="-861288928#6" to="861292745#3"/>
    <trip id="115" depart="115.00" from="-51406026#3" to="-861288933#3"/>
    <trip id="117" depart="117.00" from="118761048#0" to="-861275119#6"/>
    <trip id="118" depart="118.00" from="861275128#4" to="118761048#12"/>
    <trip id="120" depart="120.00" from="25999428" to="51405893#2"/>
    <trip id="121" depart="121.00" from="50848484#1" to="861288932"/>
    <trip id="122" depart="122.00" from="109805922#0" to="51432217#2"/>
    <trip id="123" depart="123.00" from="118761048#10" to="229913537#3"/>
    <trip id="124" depart="124.00" from="51406033#6" to="118876533#0"/>
    <trip id="125" depart="125.00" from="1227518037" to="709861201"/>
    <trip id="126" depart="126.00" from="-51406025#1" to="32015932#2"/>
    <trip id="127" depart="127.00" from="961366015#1" to="961366014#9"/>
    <trip id="128" depart="128.00" from="-51406025#1" to="109805922#1"/>
    <trip id="129" depart="129.00" from="118761072#0" to="861288932"/>
    <trip id="130" depart="130.00" from="861275127#3" to="861275127#4"/>
    <trip id="131" depart="131.00" from="229913531#2" to="-861288928#2"/>
    <trip id="132" depart="132.00" from="861124498#2" to="51406623"/>
    <trip id="134" depart="134.00" from="51406031#8" to="-182916581#1"/>
    <trip id="135" depart="135.00" from="709861228#1" to="118876532"/>
    <trip id="136" depart="136.00" from="51406033#11" to="861288933#2"/>
    <trip id="137" depart="137.00" from="-861275128#6" to="-861275119#3"/>
    <trip id="138" depart="138.00" from="-861275119#5" to="51405763#0"/>
    <trip id="139" depart="139.00" from="118761072#5" to="51406025#3"/>
    <trip id="140" depart="140.00" from="51406633" to="-861292745#4"/>
    <trip id="141" depart="141.00" from="51406030#3" to="118761051"/>
    <trip id="142" depart="142.00" from="32016348#5" to="861288928#1"/>
    <trip id="143" depart="143.00" from="861124508" to="-51406025#3"/>
    <trip id="144" depart="144.00" from="28536320#2" to="118761072#5"/>
    <trip id="145" depart="145.00" from="-1227518037" to="709861211"/>
    <trip id="146" depart="146.00" from="51406030#5" to="118761048#8"/>
    <trip id="147" depart="147.00" from="51480630#4" to="51405762"/>
    <trip id="148" depart="148.00" from="28536320#4" to="-182916581#2"/>
    <trip id="149" depart="149.00" from="-51406025#3" to="861275128#2"/>
    <trip id="150" depart="150.00" from="861288928#1" to="51325619#3"/>
    <trip id="151" depart="151.00" from="861124501" to="51405893#1"/>
    <trip id="152" depart="152.00" from="-861288928#0" to="-861275127#1"/>
    <trip id="153" depart="153.00" from="118876554#1" to="861275129#1"/>
    <trip id="154" depart="154.00" from="709861223#2" to="861275119#5"/>
    <trip id="155" depart="155.00" from="861275129#0" to="109805916"/>
    <trip id="156" depart="156.00" from="118761048#4" to="-51406642#1"/>
    <trip id="157" depart="157.00" from="709861212#0" to="861275128#2"/>
    <trip id="158" depart="158.00" from="229920457#2" to="51406030#4"/>
    <trip id="159" depart="159.00" from="-861288928#4" to="861288930#5"/>
    <trip id="160" depart="160.00" from="861275119#5" to="961366012"/>
    <trip id="161" depart="161.00" from="709861225#3" to="861275128#1"/>
    <trip id="162" depart="162.00" from="-330712035#1" to="51480804#0"/>
    <trip id="164" depart="164.00" from="709861223#6" to="861275119#7"/>
    <trip id="165" depart="165.00" from="709861225#3" to="118761060#0"/>
    <trip id="166" depart="166.00" from="709861220#1" to="-861124784#0"/>
    <trip id="167" depart="167.00" from="861275124" to="861275119#4"/>
    <trip id="168" depart="168.00" from="109805922#2" to="861124487#0"/>
    <trip id="169" depart="169.00" from="32015932#4" to="118876550#1"/>
    <trip id="170" depart="170.00" from="709861223#2" to="109805922#18"/>
    <trip id="171" depart="171.00" from="-330712035#0" to="-861288933#7"/>
    <trip id="172" depart="172.00" from="1227518042" to="861275119#7"/>
    <trip id="173" depart="173.00" from="961366005" to="118761091#1"/>
    <trip id="174" depart="174.00" from="51406031#1" to="229913537#5"/>
    <trip id="175" depart="175.00" from="961366014#0" to="50852212#2"/>
    <trip id="176" depart="176.00" from="861288933#2" to="-861275119#3"/>
    <trip id="177" depart="177.00" from="961366007" to="-861288930#5"/>
    <trip id="178" depart="178.00" from="861292745#4" to="118761051"/>
    <trip id="179" depart="179.00" from="-861275119#6" to="28536320#6"/>
    <trip id="180" depart="180.00" from="51480627" to="118876556#0"/>
    <trip id="182" depart="182.00" from="229913533#2" to="51405774#1"/>
    <trip id="183" depart="183.00" from="118761048#7" to="51406642#2"/>
    <trip id="184" depart="184.00" from="-118874855" to="861288930#3"/>
    <trip id="186" depart="186.00" from="51480630#4" to="51406035#10"/>
    <trip id="187" depart="187.00" from="229913531#1" to="-51405769#0"/>
    <trip id="188" depart="188.00" from="51406033#11" to="1227518041"/>
    <trip id="189" depart="189.00" from="1227518036#0" to="861124790"/>
    <trip id="191" depart="191.00" from="118876554#1" to="229920457#10"/>
    <trip id="192" depart="192.00" from="229920457#1" to="118874859#0"/>
    <trip id="193" depart="193.00" from="-861275128#2" to="229920457#9"/>
    <trip id="194" depart="194.00" from="861288933#3" to="51406035#14"/>
    <trip id="195" depart="195.00" from="861288928#0" to="51406030#0"/>
    <trip id="196" depart="196.00" from="118876550#0" to="51325746"/>
    <trip id="197" depart="197.00" from="-118874854" to="118874856#0"/>
    <trip id="198" depart="198.00" from="28536320#5" to="51405893#0"/>
    <trip id="199" depart="199.00" from="51406031#8" to="32015932#6"/>
    <trip id="200" depart="200.00" from="30715596#2" to="109805922#10"/>
    <trip id="201" depart="201.00" from="32016261#2" to="861275129#3"/>
    <trip id="202" depart="202.00" from="709861223#2" to="-861288930#0"/>
    <trip id="204" depart="204.00" from="51406030#2" to="145244096"/>
    <trip id="205" depart="205.00" from="709861229#0" to="709861201"/>
    <trip id="206" depart="206.00" from="51406033#7" to="109805922#16"/>
    <trip id="207" depart="207.00" from="-861292745#5" to="-330712035#0"/>
    <trip id="209" depart="209.00" from="861124784#0" to="-51405769#2"/>
    <trip id="210" depart="210.00" from="229920457#7" to="51406031#2"/>
    <trip id="211" depart="211.00" from="-861292745#2" to="51406510#1"/>
    <trip id="212" depart="212.00" from="330712035#0" to="118761048#10"/>
    <trip id="213" depart="213.00" from="51406031#9" to="-182916581#0"/>
    <trip id="214" depart="214.00" from="549392001#1" to="709861210#3"/>
    <trip id="215" depart="215.00" from="-861275119#5" to="28536320#1"/>
    <trip id="216" depart="216.00" from="-861288933#0" to="861292745#2"/>
    <trip id="217" depart="217.00" from="50823044#1" to="-50848943#1"/>
    <trip id="218" depart="218.00" from="118761048#4" to="861124790"/>
    <trip id="219" depart="219.00" from="32015932#2" to="709861225#2"/>
    <trip id="220" depart="220.00" from="51406033#3" to="961366014#4"/>
    <trip id="222" depart="222.00" from="861275128#5" to="51406027"/>
    <trip id="224" depart="224.00" from="861124498#0" to="51325746"/>
    <trip id="225" depart="225.00" from="861275128#8" to="549392008"/>
    <trip id="226" depart="226.00" from="32016261#3" to="118761048#7"/>
    <trip id="227" depart="227.00" from="118761048#2" to="51406031#7"/>
    <trip id="228" depart="228.00" from="709861208#1" to="50848943#1"/>
    <trip id="229" depart="229.00" from="51406026#3" to="118761072#4"/>
    <trip id="230" depart="230.00" from="-51406026#1" to="118874855"/>
    <trip id="231" depart="231.00" from="118761072#4" to="1227518037"/>
    <trip id="233" depart="233.00" from="109805922#7" to="51406510#0"/>
    <trip id="234" depart="234.00" from="51406035#8" to="-51405765"/>
    <trip id="235" depart="235.00" from="229920457#3" to="51325619#2"/>
    <trip id="236" depart="236.00" from="229920457#8" to="-861292745#5"/>
    <trip id="237" depart="237.00" from="25999428" to="861288928#1"/>
    <trip id="238" depart="238.00" from="51405772#2" to="51406510#1"/>
    <trip id="239" depart="239.00" from="861275119#1" to="709861210#1"/>
    <trip id="240" depart="240.00" from="229913531#9" to="-182916581#0"/>
    <trip id="242" depart="242.00" from="861124797" to="861288934#1"/>
    <trip id="243" depart="243.00" from="25999428" to="612731147#1"/>
    <trip id="244" depart="244.00" from="51325619#2" to="51406025#2"/>
    <trip id="245" depart="245.00" from="109805922#18" to="109805922#13"/>
    <trip id="246" depart="246.00" from="28536320#9" to="-50823041#1"/>
    <trip id="247" depart="247.00" from="182916581#2" to="51406035#15"/>
    <trip id="248" depart="248.00" from="229920457#10" to="-861288928#7"/>
    <trip id="249" depart="249.00" from="32015932#8" to="-861275127#1"/>
    <trip id="250" depart="250.00" from="51406026#1" to="-50823041#0"/>
    <trip id="251" depart="251.00" from="229913537#2" to="51405768#4"/>
    <trip id="252" depart="252.00" from="-50823041#1" to="51406032"/>
    <trip id="253" depart="253.00" from="-861275128#7" to="32015932#4"/>
    <trip id="255" depart="255.00" from="109805922#12" to="1227518040#0"/>
    <trip id="257" depart="257.00" from="549392001#1" to="861124502"/>
    <trip id="258" depart="258.00" from="118761048#5" to="-51405896#2"/>
    <trip id="259" depart="259.00" from="-316449842" to="51325473"/>
    <trip id="260" depart="260.00" from="961366015#1" to="182916585#0"/>
    <trip id="261" depart="261.00" from="51406031#6" to="709861220#1"/>
    <trip id="262" depart="262.00" from="51406031#7" to="709861205"/>
    <trip id="263" depart="263.00" from="861288933#9" to="-861292745#1"/>
    <trip id="264" depart="264.00" from="-32017355#0" to="-861275129#2"/>
    <trip id="265" depart="265.00" from="-861275128#1" to="51406035#10"/>
    <trip id="266" depart="266.00" from="51405767" to="109805922#12"/>
    <trip id="267" depart="267.00" from="51406035#4" to="709861210#1"/>
    <trip id="268" depart="268.00" from="-861288930#3" to="51406026#1"/>
    <trip id="269" depart="269.00" from="51480804#1" to="-861275119#3"/>
    <trip id="271" depart="271.00" from="-861275119#6" to="-330712035#1"/>
    <trip id="272" depart="272.00" from="118876556#1" to="51406035#14"/>
    <trip id="273" depart="273.00" from="861292745#2" to="229913537#3"/>
    <trip id="274" depart="274.00" from="51406623" to="-51405774#1"/>
    <trip id="275" depart="275.00" from="51406035#14" to="51406031#10"/>
    <trip id="276" depart="276.00" from="-861275119#2" to="709861212#0"/>
    <trip id="277" depart="277.00" from="861124790" to="51405899#5"/>
    <trip id="278" depart="278.00" from="-861275127#3" to="961366014#2"/>
    <trip id="279" depart="279.00" from="709861213" to="182916584"/>
    <trip id="281" depart="281.00" from="50823041#3" to="182916581#1"/>
    <trip id="282" depart="282.00" from="861124784#0" to="861124497#1"/>
    <trip id="283" depart="283.00" from="-861275119#4" to="861292745#3"/>
    <trip id="284" depart="284.00" from="51406030#4" to="861124498#2"/>
    <trip id="285" depart="285.00" from="51406035#9" to="28536320#7"/>
    <trip id="287" depart="287.00" from="118761072#3" to="709861228#0"/>
    <trip id="289" depart="289.00" from="28536320#9" to="51480630#3"/>
    <trip id="290" depart="290.00" from="118761072#2" to="861124797"/>
    <trip id="291" depart="291.00" from="861124498#1" to="-51406025#0"/>
    <trip id="292" depart="292.00" from="861275127#4" to="118761048#10"/>
    <trip id="293" depart="293.00" from="32015932#7" to="51406026#3"/>
    <trip id="294" depart="294.00" from="229913531#8" to="-50823041#1"/>
    <trip id="295" depart="295.00" from="861124790" to="-861288933#0"/>
    <trip id="296" depart="296.00" from="109805922#13" to="709861224"/>
    <trip id="297" depart="297.00" from="182916583" to="861275128#0"/>
    <trip id="298" depart="298.00" from="51406035#5" to="118761072#5"/>
    <trip id="299" depart="299.00" from="-182916581#2" to="861288933#8"/>
    <trip id="301" depart="301.00" from="32016348#5" to="709861208#1"/>
    <trip id="302" depart="302.00" from="51406035#14" to="51406033#1"/>
    <trip id="303" depart="303.00" from="32017355#0" to="709861223#4"/>
    <trip id="304" depart="304.00" from="-861124487#1" to="109805922#15"/>
    <trip id="305" depart="305.00" from="51406035#14" to="118876552#0"/>
    <trip id="308" depart="308.00" from="51480804#0" to="1227518042"/>
    <trip id="309" depart="309.00" from="51406035#6" to="118761072#2"/>
    <trip id="310" depart="310.00" from="118761048#5" to="-861275119#7"/>
    <trip id="311" depart="311.00" from="-861292745#1" to="-861275119#6"/>
    <trip id="313" depart="313.00" from="-861288933#6" to="109805922#11"/>
    <trip id="314" depart="314.00" from="32016348#3" to="51480629#2"/>
    <trip id="315" depart="315.00" from="961366011" to="50848943#3"/>
    <trip id="316" depart="316.00" from="118874854" to="-51406026#4"/>
    <trip id="317" depart="317.00" from="-861292745#2" to="109805922#18"/>
    <trip id="318" depart="318.00" from="-861288933#3" to="-30715596#0"/>
    <trip id="320" depart="320.00" from="961366010" to="51405763#0"/>
    <trip id="321" depart="321.00" from="51406035#3" to="-861275127#0"/>
    <trip id="322" depart="322.00" from="861275121" to="32017355#0"/>
    <trip id="323" depart="323.00" from="861275124" to="51405772#2"/>
    <trip id="324" depart="324.00" from="32016261#0" to="30715596#0"/>
    <trip id="325" depart="325.00" from="-861288933#6" to="-50848943#2"/>
    <trip id="326" depart="326.00" from="861288933#3" to="32016261#5"/>
    <trip id="327" depart="327.00" from="709861230" to="229913537#6"/>
    <trip id="328" depart="328.00" from="-51406025#2" to="51406031#2"/>
    <trip id="330" depart="330.00" from="51405766" to="118876550#0"/>
    <trip id="332" depart="332.00" from="709861208#0" to="51406026#1"/>
    <trip id="333" depart="333.00" from="709861222" to="109805922#17"/>
    <trip id="334" depart="334.00" from="50848484#1" to="316449853#2"/>
    <trip id="335" depart="335.00" from="30715596#2" to="861275119#5"/>
    <trip id="337" depart="337.00" from="51406026#0" to="51406026#3"/>
    <trip id="338" depart="338.00" from="51480630#3" to="861288933#7"/>
    <trip id="339" depart="339.00" from="109805922#10" to="109805922#0"/>
    <trip id="340" depart="340.00" from="51406033#1" to="-861288928#2"/>
    <trip id="341" depart="341.00" from="-861288930#6" to="-51405774#1"/>
    <trip id="342" depart="342.00" from="-118874855" to="316449853#2"/>
    <trip id="344" depart="344.00" from="109805922#8" to="51406642#1"/>
    <trip id="345" depart="345.00" from="51406035#6" to="32015932#1"/>
    <trip id="346" depart="346.00" from="51406035#12" to="861288930#2"/>
    <trip id="347" depart="347.00" from="709861220#1" to="51406031#0"/>
    <trip id="348" depart="348.00" from="51406033#1" to="861288932"/>
    <trip id="349" depart="349.00" from="28536320#3" to="51325619#3"/>
    <trip id="350" depart="350.00" from="51406031#4" to="861288928#3"/>
    <trip id="351" depart="351.00" from="861124497#1" to="-51405769#1"/>
    <trip id="352" depart="352.00" from="-861288930#1" to="118876552#0"/>
    <trip id="353" depart="353.00" from="51480804#1" to="51405770"/>
    <trip id="354" depart="354.00" from="118874858#0" to="-861275123"/>
    <trip id="355" depart="355.00" from="51406035#12" to="51406510#3"/>
    <trip id="356" depart="356.00" from="861288933#4" to="50823041#1"/>
    <trip id="357" depart="357.00" from="330712035#0" to="-51405896#1"/>
    <trip id="358" depart="358.00" from="-50823041#9" to="28536320#5"/>
    <trip id="359" depart="359.00" from="1227518039#2" to="118761048#14"/>
    <trip id="360" depart="360.00" from="-861124487#0" to="861292745#4"/>
    <trip id="361" depart="361.00" from="861124502" to="51405772#3"/>
    <trip id="362" depart="362.00" from="861288933#9" to="961366015#1"/>
    <trip id="363" depart="363.00" from="51406033#6" to="118761072#1"/>
    <trip id="364" depart="364.00" from="-50823041#9" to="709861208#0"/>
    <trip id="365" depart="365.00" from="32016261#0" to="51406033#3"/>
    <trip id="366" depart="366.00" from="861288928#8" to="-861288933#0"/>
    <trip id="367" depart="367.00" from="51405772#3" to="51406031#5"/>
    <trip id="368" depart="368.00" from="32017355#0" to="-51406025#3"/>
    <trip id="370" depart="370.00" from="51406033#5" to="861275119#3"/>
    <trip id="371" depart="371.00" from="1227518043" to="51406035#9"/>
    <trip id="372" depart="372.00" from="118874857" to="861288933#6"/>
    <trip id="373" depart="373.00" from="709861227" to="51325753"/>
    <trip id="374" depart="374.00" from="32015932#11" to="118876556#1"/>
    <trip id="375" depart="375.00" from="1227518040#0" to="961366008"/>
    <trip id="376" depart="376.00" from="229920457#10" to="50823041#9"/>
    <trip id="378" depart="378.00" from="51325619#0" to="229920457#4"/>
    <trip id="379" depart="379.00" from="-861288933#8" to="188826159#0"/>
    <trip id="380" depart="380.00" from="709861200#0" to="51406031#1"/>
    <trip id="381" depart="381.00" from="709861201" to="-861292745#3"/>
    <trip id="382" depart="382.00" from="51325619#4" to="861288930#4"/>
    <trip id="383" depart="383.00" from="30715596#0" to="51406510#2"/>
    <trip id="384" depart="384.00" from="-861275127#3" to="961366010"/>
    <trip id="386" depart="386.00" from="-861288928#7" to="51405762"/>
    <trip id="387" depart="387.00" from="51325753" to="-51406026#0"/>
    <trip id="389" depart="389.00" from="32015932#5" to="-861275119#5"/>
    <trip id="390" depart="390.00" from="861124498#1" to="50822986"/>
    <trip id="391" depart="391.00" from="51406623" to="50823041#6"/>
    <trip id="392" depart="392.00" from="118761072#5" to="861124504"/>
    <trip id="393" depart="393.00" from="961366013" to="118761048#10"/>
    <trip id="394" depart="394.00" from="51325746" to="229913533#0"/>
    <trip id="395" depart="395.00" from="861288930#1" to="50823041#6"/>
    <trip id="396" depart="396.00" from="861275127#2" to="861275119#7"/>
    <trip id="397" depart="397.00" from="118761091#0" to="709861223#3"/>
    <trip id="398" depart="398.00" from="229920457#7" to="861288932"/>
    <trip id="399" depart="399.00" from="50823041#4" to="861124497#0"/>
    <trip id="400" depart="400.00" from="118874854" to="118876532"/>
    <trip id="401" depart="401.00" from="51405774#0" to="961366015#1"/>
    <trip id="402" depart="402.00" from="32016348#6" to="-861275129#0"/>
    <trip id="404" depart="404.00" from="51325746" to="51325619#2"/>
    <trip id="405" depart="405.00" from="32015932#11" to="1227518039#0"/>
    <trip id="406" depart="406.00" from="-861288933#8" to="51406510#2"/>
    <trip id="407" depart="407.00" from="51405768#4" to="109805922#5"/>
    <trip id="408" depart="408.00" from="709861210#3" to="-50823044#0"/>
    <trip id="409" depart="409.00" from="51480630#6" to="51406642#0"/>
    <trip id="410" depart="410.00" from="709861226" to="229913533#2"/>
    <trip id="411" depart="411.00" from="51406033#11" to="861124497#0"/>
    <trip id="412" depart="412.00" from="961366014#0" to="330712035#1"/>
    <trip id="413" depart="413.00" from="-50823041#7" to="50823041#2"/>
    <trip id="414" depart="414.00" from="51405774#2" to="861275124"/>
    <trip id="415" depart="415.00" from="861275126" to="30715596#0"/>
    <trip id="418" depart="418.00" from="51406031#9" to="-861288928#0"/>
    <trip id="419" depart="419.00" from="32016261#0" to="961366008"/>
    <trip id="420" depart="420.00" from="182916582" to="51406035#9"/>
    <trip id="421" depart="421.00" from="51406031#5" to="861124797"/>
    <trip id="422" depart="422.00" from="861124792" to="861275119#4"/>
    <trip id="423" depart="423.00" from="229913531#9" to="1227518036#0"/>
    <trip id="425" depart="425.00" from="861275124" to="-50823041#6"/>
    <trip id="427" depart="427.00" from="861288930#0" to="961366015#0"/>
    <trip id="428" depart="428.00" from="51480804#0" to="28536320#6"/>
    <trip id="429" depart="429.00" from="-861275119#0" to="51406031#5"/>
    <trip id="430" depart="430.00" from="861275124" to="30715596#2"/>
    <trip id="431" depart="431.00" from="51406035#16" to="861288928#0"/>
    <trip id="434" depart="434.00" from="-861275129#3" to="50849311#2"/>
    <trip id="435" depart="435.00" from="51405768#0" to="709861223#4"/>
    <trip id="436" depart="436.00" from="-861288930#4" to="-51405896#0"/>
    <trip id="437" depart="437.00" from="861275123" to="51406030#3"/>
    <trip id="438" depart="438.00" from="118761048#11" to="861288928#6"/>
    <trip id="439" depart="439.00" from="-861275129#1" to="32015932#4"/>
    <trip id="440" depart="440.00" from="118761048#6" to="118761048#4"/>
    <trip id="441" depart="441.00" from="-182916581#1" to="709861226"/>
    <trip id="442" depart="442.00" from="861275129#2" to="51406035#15"/>
    <trip id="443" depart="443.00" from="-861288928#6" to="30715596#1"/>
    <trip id="444" depart="444.00" from="182916592#1" to="51405896#1"/>
    <trip id="445" depart="445.00" from="51406031#0" to="28536320#0"/>
    <trip id="446" depart="446.00" from="118761048#4" to="861124784#1"/>
    <trip id="447" depart="447.00" from="-861292745#5" to="229913533#1"/>
    <trip id="448" depart="448.00" from="32016348#2" to="109805922#7"/>