<?xml version="1.0" encoding="UTF-8"?>

<!-- generated on 2025-02-22 16:17:51 by Eclipse SUMO netconvert Version 1.22.0
<netconvertConfiguration xmlns:xsi="http://www.w3.org/2001/XMLSchema-instance" xsi:noNamespaceSchemaLocation="http://sumo.dlr.de/xsd/netconvertConfiguration.xsd">

    <input>
        <node-files value="configs/metrla/pems_nodes.nod.xml"/>
        <edge-files value="configs/metrla/pems_edges.edg.xml"/>
    </input>

    <output>
        <output-file value="configs/metrla/pems_network_fixed.net.xml"/>
    </output>

    <processing>
        <geometry.remove value="true"/>
    </processing>

    <edge_removal>
        <remove-edges.by-vclass value="rail_slow,rail_fast"/>
        <remove-edges.isolated value="true"/>
    </edge_removal>

    <junctions>
        <junctions.join value="true"/>
    </junctions>

</netconvertConfiguration>
-->

<net version="1.20" junctionCornerDetail="5" limitTurnSpeed="5.50" xmlns:xsi="http://www.w3.org/2001/XMLSchema-instance" xsi:noNamespaceSchemaLocation="http://sumo.dlr.de/xsd/net_file.xsd">

    <location netOffset="-10000000000.00,-10000000000.00" convBoundary="0.00,0.00,-20000000000.00,-20000000000.00" origBoundary="-118.54,34.04,-118.18,34.22" projParameter="!"/>



</net>
