<edges>
    <edge id="773869_773869" from="773869" to="773869" />
    <edge id="773869_773906" from="773869" to="773906" />
    <edge id="773869_718204" from="773869" to="718204" />
    <edge id="773869_773927" from="773869" to="773927" />
    <edge id="773869_773953" from="773869" to="773953" />
    <edge id="773869_773916" from="773869" to="773916" />
    <edge id="773869_717572" from="773869" to="717572" />
    <edge id="773869_718090" from="773869" to="718090" />
    <edge id="773869_718496" from="773869" to="718496" />
    <edge id="773869_773904" from="773869" to="773904" />
    <edge id="773869_761003" from="773869" to="761003" />
    <edge id="773869_774204" from="773869" to="774204" />
    <edge id="767541_767541" from="767541" to="767541" />
    <edge id="767541_767542" from="767541" to="767542" />
    <edge id="767541_767620" from="767541" to="767620" />
    <edge id="767541_767573" from="767541" to="767573" />
    <edge id="767541_718064" from="767541" to="718064" />
    <edge id="767541_767455" from="767541" to="767455" />
    <edge id="767541_767554" from="767541" to="767554" />
    <edge id="767541_767495" from="767541" to="767495" />
    <edge id="767542_767541" from="767542" to="767541" />
    <edge id="767542_767542" from="767542" to="767542" />
    <edge id="767542_767573" from="767542" to="767573" />
    <edge id="767542_716956" from="767542" to="716956" />
    <edge id="767542_718064" from="767542" to="718064" />
    <edge id="767542_767523" from="767542" to="767523" />
    <edge id="767542_759591" from="767542" to="759591" />
    <edge id="767542_767554" from="767542" to="767554" />
    <edge id="767542_767495" from="767542" to="767495" />
    <edge id="717447_717447" from="717447" to="717447" />
    <edge id="717447_717446" from="717447" to="717446" />
    <edge id="717447_716339" from="717447" to="716339" />
    <edge id="717447_716331" from="717447" to="716331" />
    <edge id="717447_716337" from="717447" to="716337" />
    <edge id="717447_716328" from="717447" to="716328" />
    <edge id="717447_765164" from="717447" to="765164" />
    <edge id="717447_764853" from="717447" to="764853" />
    <edge id="717447_717460" from="717447" to="717460" />
    <edge id="717447_717459" from="717447" to="717459" />
    <edge id="717447_717450" from="717447" to="717450" />
    <edge id="717447_717452" from="717447" to="717452" />
    <edge id="717447_717453" from="717447" to="717453" />
    <edge id="717447_717456" from="717447" to="717456" />
    <edge id="717446_717447" from="717446" to="717447" />
    <edge id="717446_717446" from="717446" to="717446" />
    <edge id="717446_773062" from="717446" to="773062" />
    <edge id="717446_716331" from="717446" to="716331" />
    <edge id="717446_771667" from="717446" to="771667" />
    <edge id="717446_716337" from="717446" to="716337" />
    <edge id="717446_716328" from="717446" to="716328" />
    <edge id="717446_765164" from="717446" to="765164" />
    <edge id="717446_773023" from="717446" to="773023" />
    <edge id="717446_773024" from="717446" to="773024" />
    <edge id="717446_765182" from="717446" to="765182" />
    <edge id="717446_772513" from="717446" to="772513" />
    <edge id="717446_764853" from="717446" to="764853" />
    <edge id="717446_717450" from="717446" to="717450" />
    <edge id="717446_717452" from="717446" to="717452" />
    <edge id="717446_717456" from="717446" to="717456" />
    <edge id="717445_717447" from="717445" to="717447" />
    <edge id="717445_717446" from="717445" to="717446" />
    <edge id="717445_717445" from="717445" to="717445" />
    <edge id="717445_716331" from="717445" to="716331" />
    <edge id="717445_716337" from="717445" to="716337" />
    <edge id="717445_716328" from="717445" to="716328" />
    <edge id="717445_765164" from="717445" to="765164" />
    <edge id="717445_773024" from="717445" to="773024" />
    <edge id="717445_764853" from="717445" to="764853" />
    <edge id="717445_717459" from="717445" to="717459" />
    <edge id="717445_717450" from="717445" to="717450" />
    <edge id="717445_717452" from="717445" to="717452" />
    <edge id="717445_717456" from="717445" to="717456" />
    <edge id="773062_773062" from="773062" to="773062" />
    <edge id="773062_771667" from="773062" to="771667" />
    <edge id="773062_773023" from="773062" to="773023" />
    <edge id="773062_773024" from="773062" to="773024" />
    <edge id="773062_716942" from="773062" to="716942" />
    <edge id="773062_765182" from="773062" to="765182" />
    <edge id="773062_716939" from="773062" to="716939" />
    <edge id="767620_767620" from="767620" to="767620" />
    <edge id="767620_767471" from="767620" to="767471" />
    <edge id="767620_767572" from="767620" to="767572" />
    <edge id="767620_774011" from="767620" to="774011" />
    <edge id="767620_718066" from="767620" to="718066" />
    <edge id="767620_767621" from="767620" to="767621" />
    <edge id="767620_767585" from="767620" to="767585" />
    <edge id="767620_767455" from="767620" to="767455" />
    <edge id="767620_767454" from="767620" to="767454" />
    <edge id="767620_717099" from="767620" to="717099" />
    <edge id="767620_762329" from="767620" to="762329" />
    <edge id="767620_773995" from="767620" to="773995" />
    <edge id="767620_773974" from="767620" to="773974" />
    <edge id="767620_717590" from="767620" to="717590" />
    <edge id="737529_737529" from="737529" to="737529" />
    <edge id="737529_765273" from="737529" to="765273" />
    <edge id="737529_767053" from="737529" to="767053" />
    <edge id="737529_767350" from="737529" to="767350" />
    <edge id="737529_765265" from="737529" to="765265" />
    <edge id="737529_717821" from="737529" to="717821" />
    <edge id="737529_717823" from="737529" to="717823" />
    <edge id="717816_717816" from="717816" to="717816" />
    <edge id="717816_760024" from="717816" to="760024" />
    <edge id="717816_769430" from="717816" to="769430" />
    <edge id="717816_717818" from="717816" to="717818" />
    <edge id="717816_717502" from="717816" to="717502" />
    <edge id="765604_765604" from="765604" to="765604" />
    <edge id="765604_764424" from="765604" to="764424" />
    <edge id="765604_717608" from="765604" to="717608" />
    <edge id="765604_764106" from="765604" to="764106" />
    <edge id="765604_764101" from="765604" to="764101" />
    <edge id="767471_767471" from="767471" to="767471" />
    <edge id="767471_767609" from="767471" to="767609" />
    <edge id="767471_767470" from="767471" to="767470" />
    <edge id="767471_767585" from="767471" to="767585" />
    <edge id="767471_718072" from="767471" to="718072" />
    <edge id="767471_767454" from="767471" to="767454" />
    <edge id="767471_762329" from="767471" to="762329" />
    <edge id="767471_717587" from="767471" to="717587" />
    <edge id="767471_773974" from="767471" to="773974" />
    <edge id="716339_717446" from="716339" to="717446" />
    <edge id="716339_716339" from="716339" to="716339" />
    <edge id="716339_716331" from="716339" to="716331" />
    <edge id="716339_716337" from="716339" to="716337" />
    <edge id="716339_716328" from="716339" to="716328" />
    <edge id="716339_765164" from="716339" to="765164" />
    <edge id="716339_764853" from="716339" to="764853" />
    <edge id="716339_717460" from="716339" to="717460" />
    <edge id="716339_717463" from="716339" to="717463" />
    <edge id="716339_717459" from="716339" to="717459" />
    <edge id="716339_717450" from="716339" to="717450" />
    <edge id="716339_717452" from="716339" to="717452" />
    <edge id="716339_717453" from="716339" to="717453" />
    <edge id="716339_717456" from="716339" to="717456" />
    <edge id="773906_773869" from="773906" to="773869" />
    <edge id="773906_773906" from="773906" to="773906" />
    <edge id="773906_718204" from="773906" to="718204" />
    <edge id="773906_773953" from="773906" to="773953" />
    <edge id="773906_773916" from="773906" to="773916" />
    <edge id="773906_717572" from="773906" to="717572" />
    <edge id="773906_718496" from="773906" to="718496" />
    <edge id="773906_773904" from="773906" to="773904" />
    <edge id="773906_718499" from="773906" to="718499" />
    <edge id="773906_774204" from="773906" to="774204" />
    <edge id="765273_765273" from="765273" to="765273" />
    <edge id="765273_765171" from="765273" to="765171" />
    <edge id="765273_767053" from="765273" to="767053" />
    <edge id="765273_767350" from="765273" to="767350" />
    <edge id="765273_767351" from="765273" to="767351" />
    <edge id="765273_764781" from="765273" to="764781" />
    <edge id="765273_717502" from="765273" to="717502" />
    <edge id="765273_765265" from="765273" to="765265" />
    <edge id="716331_773062" from="716331" to="773062" />
    <edge id="716331_716331" from="716331" to="716331" />
    <edge id="716331_771667" from="716331" to="771667" />
    <edge id="716331_716328" from="716331" to="716328" />
    <edge id="716331_773023" from="716331" to="773023" />
    <edge id="716331_773024" from="716331" to="773024" />
    <edge id="716331_765182" from="716331" to="765182" />
    <edge id="716331_772513" from="716331" to="772513" />
    <edge id="716331_764853" from="716331" to="764853" />
    <edge id="771667_717445" from="771667" to="717445" />
    <edge id="771667_773062" from="771667" to="773062" />
    <edge id="771667_771667" from="771667" to="771667" />
    <edge id="771667_716941" from="771667" to="716941" />
    <edge id="771667_773013" from="771667" to="773013" />
    <edge id="771667_718045" from="771667" to="718045" />
    <edge id="771667_760650" from="771667" to="760650" />
    <edge id="771667_767750" from="771667" to="767750" />
    <edge id="771667_767751" from="771667" to="767751" />
    <edge id="771667_773023" from="771667" to="773023" />
    <edge id="771667_773024" from="771667" to="773024" />
    <edge id="771667_718371" from="771667" to="718371" />
    <edge id="771667_716953" from="771667" to="716953" />
    <edge id="771667_716951" from="771667" to="716951" />
    <edge id="771667_765182" from="771667" to="765182" />
    <edge id="771667_772513" from="771667" to="772513" />
    <edge id="771667_716943" from="771667" to="716943" />
    <edge id="771667_772669" from="771667" to="772669" />
    <edge id="771667_771673" from="771667" to="771673" />
    <edge id="716337_717446" from="716337" to="717446" />
    <edge id="716337_716339" from="716337" to="716339" />
    <edge id="716337_716337" from="716337" to="716337" />
    <edge id="716337_765164" from="716337" to="765164" />
    <edge id="716337_717469" from="716337" to="717469" />
    <edge id="716337_717465" from="716337" to="717465" />
    <edge id="716337_717461" from="716337" to="717461" />
    <edge id="716337_717460" from="716337" to="717460" />
    <edge id="716337_717463" from="716337" to="717463" />
    <edge id="716337_717459" from="716337" to="717459" />
    <edge id="716337_717450" from="716337" to="717450" />
    <edge id="716337_717453" from="716337" to="717453" />
    <edge id="716337_717456" from="716337" to="717456" />
    <edge id="769953_769953" from="769953" to="769953" />
    <edge id="769953_769941" from="769953" to="769941" />
    <edge id="769953_769926" from="769953" to="769926" />
    <edge id="769402_769402" from="769402" to="769402" />
    <edge id="769402_769403" from="769402" to="769403" />
    <edge id="769402_769405" from="769402" to="769405" />
    <edge id="769402_769418" from="769402" to="769418" />
    <edge id="769402_764949" from="769402" to="764949" />
    <edge id="769402_764766" from="769402" to="764766" />
    <edge id="769402_765176" from="769402" to="765176" />
    <edge id="769402_717481" from="769402" to="717481" />
    <edge id="769402_717488" from="769402" to="717488" />
    <edge id="769402_764760" from="769402" to="764760" />
    <edge id="769402_768469" from="769402" to="768469" />
    <edge id="769403_769402" from="769403" to="769402" />
    <edge id="769403_769403" from="769403" to="769403" />
    <edge id="769403_769405" from="769403" to="769405" />
    <edge id="769403_769388" from="769403" to="769388" />
    <edge id="769403_769418" from="769403" to="769418" />
    <edge id="769403_764949" from="769403" to="764949" />
    <edge id="769403_765176" from="769403" to="765176" />
    <edge id="769403_717481" from="769403" to="717481" />
    <edge id="769403_764760" from="769403" to="764760" />
    <edge id="769403_717472" from="769403" to="717472" />
    <edge id="769403_717468" from="769403" to="717468" />
    <edge id="769403_769373" from="769403" to="769373" />
    <edge id="769819_769953" from="769819" to="769953" />
    <edge id="769819_769819" from="769819" to="769819" />
    <edge id="769819_769941" from="769819" to="769941" />
    <edge id="769819_769806" from="769819" to="769806" />
    <edge id="769405_769402" from="769405" to="769402" />
    <edge id="769405_769403" from="769405" to="769403" />
    <edge id="769405_769405" from="769405" to="769405" />
    <edge id="769405_769388" from="769405" to="769388" />
    <edge id="769405_769418" from="769405" to="769418" />
    <edge id="769405_764949" from="769405" to="764949" />
    <edge id="769405_717481" from="769405" to="717481" />
    <edge id="769405_769373" from="769405" to="769373" />
    <edge id="716941_716941" from="716941" to="716941" />
    <edge id="716941_716942" from="716941" to="716942" />
    <edge id="716941_716943" from="716941" to="716943" />
    <edge id="716941_716939" from="716941" to="716939" />
    <edge id="717578_717578" from="717578" to="717578" />
    <edge id="717578_716554" from="717578" to="716554" />
    <edge id="717578_773954" from="717578" to="773954" />
    <edge id="717578_774067" from="717578" to="774067" />
    <edge id="717578_718379" from="717578" to="718379" />
    <edge id="717578_717576" from="717578" to="717576" />
    <edge id="717578_718090" from="717578" to="718090" />
    <edge id="717578_717583" from="717578" to="717583" />
    <edge id="717578_717580" from="717578" to="717580" />
    <edge id="717578_717587" from="717578" to="717587" />
    <edge id="717578_717585" from="717578" to="717585" />
    <edge id="716960_716960" from="716960" to="716960" />
    <edge id="716960_716955" from="716960" to="716955" />
    <edge id="716960_718089" from="716960" to="718089" />
    <edge id="716960_767523" from="716960" to="767523" />
    <edge id="716960_759591" from="716960" to="759591" />
    <edge id="716960_716958" from="716960" to="716958" />
    <edge id="716960_759602" from="716960" to="759602" />
    <edge id="717804_717804" from="717804" to="717804" />
    <edge id="767572_767541" from="767572" to="767541" />
    <edge id="767572_767542" from="767572" to="767542" />
    <edge id="767572_767620" from="767572" to="767620" />
    <edge id="767572_767572" from="767572" to="767572" />
    <edge id="767572_767573" from="767572" to="767573" />
    <edge id="767572_718064" from="767572" to="718064" />
    <edge id="767572_718066" from="767572" to="718066" />
    <edge id="767572_767455" from="767572" to="767455" />
    <edge id="767572_767495" from="767572" to="767495" />
    <edge id="767573_767620" from="767573" to="767620" />
    <edge id="767573_767471" from="767573" to="767471" />
    <edge id="767573_767572" from="767573" to="767572" />
    <edge id="767573_767573" from="767573" to="767573" />
    <edge id="767573_718066" from="767573" to="718066" />
    <edge id="767573_767621" from="767573" to="767621" />
    <edge id="767573_767455" from="767573" to="767455" />
    <edge id="767573_767454" from="767573" to="767454" />
    <edge id="767573_762329" from="767573" to="762329" />
    <edge id="767573_773995" from="767573" to="773995" />
    <edge id="767573_773974" from="767573" to="773974" />
    <edge id="767573_717590" from="767573" to="717590" />
    <edge id="773012_771667" from="773012" to="771667" />
    <edge id="773012_773012" from="773012" to="773012" />
    <edge id="773012_773013" from="773012" to="773013" />
    <edge id="773012_718045" from="773012" to="718045" />
    <edge id="773012_760650" from="773012" to="760650" />
    <edge id="773012_772669" from="773012" to="772669" />
    <edge id="773012_771673" from="773012" to="771673" />
    <edge id="773013_773013" from="773013" to="773013" />
    <edge id="773013_767750" from="773013" to="767750" />
    <edge id="773013_767751" from="773013" to="767751" />
    <edge id="764424_764424" from="764424" to="764424" />
    <edge id="764424_717610" from="764424" to="717610" />
    <edge id="764424_764120" from="764424" to="764120" />
    <edge id="764424_717608" from="764424" to="717608" />
    <edge id="769388_769402" from="769388" to="769402" />
    <edge id="769388_769388" from="769388" to="769388" />
    <edge id="769388_769418" from="769388" to="769418" />
    <edge id="769388_764949" from="769388" to="764949" />
    <edge id="769388_717483" from="769388" to="717483" />
    <edge id="769388_717481" from="769388" to="717481" />
    <edge id="769388_717480" from="769388" to="717480" />
    <edge id="769388_717472" from="769388" to="717472" />
    <edge id="769388_717469" from="769388" to="717469" />
    <edge id="769388_717468" from="769388" to="717468" />
    <edge id="769388_717466" from="769388" to="717466" />
    <edge id="769388_717462" from="769388" to="717462" />
    <edge id="769388_769373" from="769388" to="769373" />
    <edge id="716328_717447" from="716328" to="717447" />
    <edge id="716328_717445" from="716328" to="717445" />
    <edge id="716328_773062" from="716328" to="773062" />
    <edge id="716328_771667" from="716328" to="771667" />
    <edge id="716328_716328" from="716328" to="716328" />
    <edge id="716328_773023" from="716328" to="773023" />
    <edge id="716328_773024" from="716328" to="773024" />
    <edge id="716328_765182" from="716328" to="765182" />
    <edge id="716328_772513" from="716328" to="772513" />
    <edge id="716328_764853" from="716328" to="764853" />
    <edge id="716328_772669" from="716328" to="772669" />
    <edge id="716328_771673" from="716328" to="771673" />
    <edge id="717819_765273" from="717819" to="765273" />
    <edge id="717819_717819" from="717819" to="717819" />
    <edge id="717819_765265" from="717819" to="765265" />
    <edge id="717819_717825" from="717819" to="717825" />
    <edge id="717819_717823" from="717819" to="717823" />
    <edge id="769941_769941" from="769941" to="769941" />
    <edge id="769941_767610" from="769941" to="767610" />
    <edge id="769941_769867" from="769941" to="769867" />
    <edge id="769941_769926" from="769941" to="769926" />
    <edge id="760987_773869" from="760987" to="773869" />
    <edge id="760987_760987" from="760987" to="760987" />
    <edge id="760987_773880" from="760987" to="773880" />
    <edge id="760987_717573" from="760987" to="717573" />
    <edge id="760987_717571" from="760987" to="717571" />
    <edge id="760987_718496" from="760987" to="718496" />
    <edge id="760987_773904" from="760987" to="773904" />
    <edge id="760987_761003" from="760987" to="761003" />
    <edge id="760987_774204" from="760987" to="774204" />
    <edge id="718204_717578" from="718204" to="717578" />
    <edge id="718204_718204" from="718204" to="718204" />
    <edge id="718204_773927" from="718204" to="773927" />
    <edge id="718204_773953" from="718204" to="773953" />
    <edge id="718204_718379" from="718204" to="718379" />
    <edge id="718204_773916" from="718204" to="773916" />
    <edge id="718204_718090" from="718204" to="718090" />
    <edge id="718204_717583" from="718204" to="717583" />
    <edge id="718204_717580" from="718204" to="717580" />
    <edge id="718045_717447" from="718045" to="717447" />
    <edge id="718045_717445" from="718045" to="717445" />
    <edge id="718045_773062" from="718045" to="773062" />
    <edge id="718045_716331" from="718045" to="716331" />
    <edge id="718045_771667" from="718045" to="771667" />
    <edge id="718045_716328" from="718045" to="716328" />
    <edge id="718045_718045" from="718045" to="718045" />
    <edge id="718045_773023" from="718045" to="773023" />
    <edge id="718045_773024" from="718045" to="773024" />
    <edge id="718045_765182" from="718045" to="765182" />
    <edge id="718045_772513" from="718045" to="772513" />
    <edge id="718045_764853" from="718045" to="764853" />
    <edge id="718045_772669" from="718045" to="772669" />
    <edge id="718045_717452" from="718045" to="717452" />
    <edge id="718045_771673" from="718045" to="771673" />
    <edge id="769418_769403" from="769418" to="769403" />
    <edge id="769418_769405" from="769418" to="769405" />
    <edge id="769418_769418" from="769418" to="769418" />
    <edge id="769418_764949" from="769418" to="764949" />
    <edge id="769418_764766" from="769418" to="764766" />
    <edge id="769418_717491" from="769418" to="717491" />
    <edge id="769418_765176" from="769418" to="765176" />
    <edge id="769418_717486" from="769418" to="717486" />
    <edge id="769418_717488" from="769418" to="717488" />
    <edge id="769418_764760" from="769418" to="764760" />
    <edge id="769418_768469" from="769418" to="768469" />
    <edge id="768066_765604" from="768066" to="765604" />
    <edge id="768066_768066" from="768066" to="768066" />
    <edge id="768066_773880" from="768066" to="773880" />
    <edge id="768066_764766" from="768066" to="764766" />
    <edge id="768066_717490" from="768066" to="717490" />
    <edge id="768066_717491" from="768066" to="717491" />
    <edge id="768066_717492" from="768066" to="717492" />
    <edge id="768066_717486" from="768066" to="717486" />
    <edge id="768066_717489" from="768066" to="717489" />
    <edge id="768066_717488" from="768066" to="717488" />
    <edge id="768066_769467" from="768066" to="769467" />
    <edge id="768066_717570" from="768066" to="717570" />
    <edge id="768066_764858" from="768066" to="764858" />
    <edge id="768066_718141" from="768066" to="718141" />
    <edge id="772140_772140" from="772140" to="772140" />
    <edge id="772140_760024" from="772140" to="760024" />
    <edge id="772140_717499" from="772140" to="717499" />
    <edge id="772140_765171" from="772140" to="765171" />
    <edge id="772140_769431" from="772140" to="769431" />
    <edge id="772140_769430" from="772140" to="769430" />
    <edge id="772140_767351" from="772140" to="767351" />
    <edge id="772140_717818" from="772140" to="717818" />
    <edge id="772140_764781" from="772140" to="764781" />
    <edge id="772140_717502" from="772140" to="717502" />
    <edge id="773927_717578" from="773927" to="717578" />
    <edge id="773927_773927" from="773927" to="773927" />
    <edge id="773927_716554" from="773927" to="716554" />
    <edge id="773927_773954" from="773927" to="773954" />
    <edge id="773927_774067" from="773927" to="774067" />
    <edge id="773927_718379" from="773927" to="718379" />
    <edge id="773927_717576" from="773927" to="717576" />
    <edge id="773927_718090" from="773927" to="718090" />
    <edge id="773927_717583" from="773927" to="717583" />
    <edge id="773927_717580" from="773927" to="717580" />
    <edge id="773927_717585" from="773927" to="717585" />
    <edge id="760024_760024" from="760024" to="760024" />
    <edge id="760024_717499" from="760024" to="717499" />
    <edge id="760024_769431" from="760024" to="769431" />
    <edge id="760024_769430" from="760024" to="769430" />
    <edge id="760024_764794" from="760024" to="764794" />
    <edge id="774012_767471" from="774012" to="767471" />
    <edge id="774012_774012" from="774012" to="774012" />
    <edge id="774012_767621" from="774012" to="767621" />
    <edge id="774012_767454" from="774012" to="767454" />
    <edge id="774012_762329" from="774012" to="762329" />
    <edge id="774012_773996" from="774012" to="773996" />
    <edge id="774012_773975" from="774012" to="773975" />
    <edge id="774012_773974" from="774012" to="773974" />
    <edge id="774012_717590" from="774012" to="717590" />
    <edge id="774011_774011" from="774011" to="774011" />
    <edge id="774011_717595" from="774011" to="717595" />
    <edge id="767609_767609" from="767609" to="767609" />
    <edge id="767609_769831" from="767609" to="769831" />
    <edge id="767609_769926" from="767609" to="769926" />
    <edge id="769359_769359" from="769359" to="769359" />
    <edge id="769359_717495" from="769359" to="717495" />
    <edge id="769359_769444" from="769359" to="769444" />
    <edge id="769359_769443" from="769359" to="769443" />
    <edge id="769359_717498" from="769359" to="717498" />
    <edge id="769359_769431" from="769359" to="769431" />
    <edge id="769359_769358" from="769359" to="769358" />
    <edge id="769359_769345" from="769359" to="769345" />
    <edge id="760650_717445" from="760650" to="717445" />
    <edge id="760650_773062" from="760650" to="773062" />
    <edge id="760650_771667" from="760650" to="771667" />
    <edge id="760650_773013" from="760650" to="773013" />
    <edge id="760650_718045" from="760650" to="718045" />
    <edge id="760650_760650" from="760650" to="760650" />
    <edge id="760650_773023" from="760650" to="773023" />
    <edge id="760650_773024" from="760650" to="773024" />
    <edge id="760650_765182" from="760650" to="765182" />
    <edge id="760650_772513" from="760650" to="772513" />
    <edge id="760650_772669" from="760650" to="772669" />
    <edge id="760650_771673" from="760650" to="771673" />
    <edge id="716956_716956" from="716956" to="716956" />
    <edge id="716956_759591" from="716956" to="759591" />
    <edge id="716956_716958" from="716956" to="716958" />
    <edge id="716956_759602" from="716956" to="759602" />
    <edge id="769831_769953" from="769831" to="769953" />
    <edge id="769831_769819" from="769831" to="769819" />
    <edge id="769831_769941" from="769831" to="769941" />
    <edge id="769831_769831" from="769831" to="769831" />
    <edge id="769831_769806" from="769831" to="769806" />
    <edge id="761604_773906" from="761604" to="773906" />
    <edge id="761604_761604" from="761604" to="761604" />
    <edge id="761604_716968" from="761604" to="716968" />
    <edge id="717495_717495" from="717495" to="717495" />
    <edge id="717495_717497" from="717495" to="717497" />
    <edge id="717495_717493" from="717495" to="717493" />
    <edge id="717495_769346" from="717495" to="769346" />
    <edge id="717495_769345" from="717495" to="769345" />
    <edge id="716554_773906" from="716554" to="773906" />
    <edge id="716554_716554" from="716554" to="716554" />
    <edge id="716554_773954" from="716554" to="773954" />
    <edge id="716554_774067" from="716554" to="774067" />
    <edge id="716554_718379" from="716554" to="718379" />
    <edge id="716554_716968" from="716554" to="716968" />
    <edge id="716554_717576" from="716554" to="717576" />
    <edge id="716554_718090" from="716554" to="718090" />
    <edge id="716554_717583" from="716554" to="717583" />
    <edge id="716554_717580" from="716554" to="717580" />
    <edge id="773953_717578" from="773953" to="717578" />
    <edge id="773953_718204" from="773953" to="718204" />
    <edge id="773953_773927" from="773953" to="773927" />
    <edge id="773953_773953" from="773953" to="773953" />
    <edge id="773953_718379" from="773953" to="718379" />
    <edge id="773953_773916" from="773953" to="773916" />
    <edge id="773953_718090" from="773953" to="718090" />
    <edge id="773953_717583" from="773953" to="717583" />
    <edge id="773953_717580" from="773953" to="717580" />
    <edge id="767470_767471" from="767470" to="767471" />
    <edge id="767470_767572" from="767470" to="767572" />
    <edge id="767470_774011" from="767470" to="774011" />
    <edge id="767470_767470" from="767470" to="767470" />
    <edge id="767470_718066" from="767470" to="718066" />
    <edge id="767470_767621" from="767470" to="767621" />
    <edge id="767470_767585" from="767470" to="767585" />
    <edge id="767470_718072" from="767470" to="718072" />
    <edge id="767470_767454" from="767470" to="767454" />
    <edge id="767470_717099" from="767470" to="717099" />
    <edge id="767470_762329" from="767470" to="762329" />
    <edge id="767470_717587" from="767470" to="717587" />
    <edge id="767470_773974" from="767470" to="773974" />
    <edge id="716955_773013" from="716955" to="773013" />
    <edge id="716955_760650" from="716955" to="760650" />
    <edge id="716955_716955" from="716955" to="716955" />
    <edge id="716955_718371" from="716955" to="718371" />
    <edge id="716955_716953" from="716955" to="716953" />
    <edge id="716955_716949" from="716955" to="716949" />
    <edge id="764949_769403" from="764949" to="769403" />
    <edge id="764949_769405" from="764949" to="769405" />
    <edge id="764949_764949" from="764949" to="764949" />
    <edge id="764949_764766" from="764949" to="764766" />
    <edge id="764949_717491" from="764949" to="717491" />
    <edge id="764949_717486" from="764949" to="717486" />
    <edge id="764949_717488" from="764949" to="717488" />
    <edge id="764949_768469" from="764949" to="768469" />
    <edge id="764949_764858" from="764949" to="764858" />
    <edge id="764949_718141" from="764949" to="718141" />
    <edge id="773954_773869" from="773954" to="773869" />
    <edge id="773954_773906" from="773954" to="773906" />
    <edge id="773954_718204" from="773954" to="718204" />
    <edge id="773954_773953" from="773954" to="773953" />
    <edge id="773954_773954" from="773954" to="773954" />
    <edge id="773954_717576" from="773954" to="717576" />
    <edge id="773954_717572" from="773954" to="717572" />
    <edge id="773954_773904" from="773954" to="773904" />
    <edge id="773954_718499" from="773954" to="718499" />
    <edge id="767366_737529" from="767366" to="737529" />
    <edge id="767366_765273" from="767366" to="765273" />
    <edge id="767366_767366" from="767366" to="767366" />