<nodes>
    <node id="773869" x="-118.31829" y="34.15497" type="traffic_light"/>
    <node id="767541" x="-118.23799" y="34.11621" type="traffic_light"/>
    <node id="767542" x="-118.23819" y="34.11641" type="traffic_light"/>
    <node id="717447" x="-118.26772" y="34.07248" type="traffic_light"/>
    <node id="717446" x="-118.26572" y="34.07142" type="traffic_light"/>
    <node id="717445" x="-118.25932" y="34.06913" type="traffic_light"/>
    <node id="773062" x="-118.23369" y="34.05368" type="traffic_light"/>
    <node id="767620" x="-118.22932" y="34.13486" type="traffic_light"/>
    <node id="737529" x="-118.47352" y="34.20264" type="traffic_light"/>
    <node id="717816" x="-118.4686" y="34.15562" type="traffic_light"/>
    <node id="765604" x="-118.38223" y="34.16415" type="traffic_light"/>
    <node id="767471" x="-118.22469" y="34.15691" type="traffic_light"/>
    <node id="716339" x="-118.28795" y="34.07821" type="traffic_light"/>
    <node id="773906" x="-118.30266" y="34.1566" type="traffic_light"/>
    <node id="765273" x="-118.47437" y="34.18949" type="traffic_light"/>
    <node id="716331" x="-118.26246" y="34.07006" type="traffic_light"/>
    <node id="771667" x="-118.23388" y="34.07314" type="traffic_light"/>
    <node id="716337" x="-118.28186" y="34.07732" type="traffic_light"/>
    <node id="769953" x="-118.19992" y="34.20672" type="traffic_light"/>
    <node id="769402" x="-118.33911" y="34.12095" type="traffic_light"/>
    <node id="769403" x="-118.33928" y="34.12073" type="traffic_light"/>
    <node id="769819" x="-118.19803" y="34.20584" type="traffic_light"/>
    <node id="769405" x="-118.34482" y="34.12634" type="traffic_light"/>
    <node id="716941" x="-118.21435" y="34.05767" type="traffic_light"/>
    <node id="717578" x="-118.27076" y="34.15478" type="traffic_light"/>
    <node id="716960" x="-118.27164" y="34.12121" type="traffic_light"/>
    <node id="717804" x="-118.47605" y="34.09478" type="traffic_light"/>
    <node id="767572" x="-118.22871" y="34.12967" type="traffic_light"/>
    <node id="767573" x="-118.22901" y="34.12964" type="traffic_light"/>
    <node id="773012" x="-118.22086" y="34.0839" type="traffic_light"/>
    <node id="773013" x="-118.22076" y="34.08374" type="traffic_light"/>
    <node id="764424" x="-118.39469" y="34.17878" type="traffic_light"/>
    <node id="769388" x="-118.33441" y="34.11027" type="traffic_light"/>
    <node id="716328" x="-118.25397" y="34.06664" type="traffic_light"/>
    <node id="717819" x="-118.47407" y="34.18784" type="traffic_light"/>
    <node id="769941" x="-118.20237" y="34.20699" type="traffic_light"/>
    <node id="760987" x="-118.34043" y="34.15359" type="traffic_light"/>
    <node id="718204" x="-118.29575" y="34.15541" type="traffic_light"/>
    <node id="718045" x="-118.23973" y="34.06712" type="traffic_light"/>
    <node id="769418" x="-118.34465" y="34.12659" type="traffic_light"/>
    <node id="768066" x="-118.3748" y="34.15118" type="traffic_light"/>
    <node id="772140" x="-118.47493" y="34.16498" type="traffic_light"/>
    <node id="773927" x="-118.28034" y="34.15262" type="traffic_light"/>
    <node id="760024" x="-118.46483" y="34.1593" type="traffic_light"/>
    <node id="774012" x="-118.20137" y="34.14769" type="traffic_light"/>
    <node id="774011" x="-118.20123" y="34.14747" type="traffic_light"/>
    <node id="767609" x="-118.21733" y="34.18555" type="traffic_light"/>
    <node id="769359" x="-118.42216" y="34.1566" type="traffic_light"/>
    <node id="760650" x="-118.23256" y="34.07505" type="traffic_light"/>
    <node id="716956" x="-118.25544" y="34.10658" type="traffic_light"/>
    <node id="769831" x="-118.20101" y="34.20663" type="traffic_light"/>
    <node id="761604" x="-118.28711" y="34.15407" type="traffic_light"/>
    <node id="717495" x="-118.41326" y="34.15664" type="traffic_light"/>
    <node id="716554" x="-118.2666" y="34.15597" type="traffic_light"/>
    <node id="773953" x="-118.29344" y="34.15522" type="traffic_light"/>
    <node id="767470" x="-118.22436" y="34.15699" type="traffic_light"/>
    <node id="716955" x="-118.24427" y="34.09579" type="traffic_light"/>
    <node id="764949" x="-118.34684" y="34.12881" type="traffic_light"/>
    <node id="773954" x="-118.29344" y="34.15544" type="traffic_light"/>
    <node id="767366" x="-118.47341" y="34.21216" type="traffic_light"/>
    <node id="769444" x="-118.43908" y="34.15555" type="traffic_light"/>
    <node id="773939" x="-118.37226" y="34.15297" type="traffic_light"/>
    <node id="774067" x="-118.28441" y="34.15362" type="traffic_light"/>
    <node id="769443" x="-118.43931" y="34.15574" type="traffic_light"/>
    <node id="767750" x="-118.20635" y="34.09335" type="traffic_light"/>
    <node id="767751" x="-118.20616" y="34.09335" type="traffic_light"/>
    <node id="767610" x="-118.21766" y="34.18555" type="traffic_light"/>
    <node id="773880" x="-118.3484" y="34.15367" type="traffic_light"/>
    <node id="764766" x="-118.3535" y="34.13338" type="traffic_light"/>
    <node id="717497" x="-118.41456" y="34.15685" type="traffic_light"/>
    <node id="717490" x="-118.37124" y="34.14745" type="traffic_light"/>
    <node id="717491" x="-118.3711" y="34.14761" type="traffic_light"/>
    <node id="717492" x="-118.37935" y="34.15459" type="traffic_light"/>
    <node id="717493" x="-118.39618" y="34.15434" type="traffic_light"/>
    <node id="765176" x="-118.35135" y="34.13286" type="traffic_light"/>
    <node id="717498" x="-118.43273" y="34.15571" type="traffic_light"/>
    <node id="717499" x="-118.44808" y="34.15666" type="traffic_light"/>
    <node id="765171" x="-118.46896" y="34.16789" type="traffic_light"/>
    <node id="718064" x="-118.24489" y="34.11296" type="traffic_light"/>
    <node id="718066" x="-118.22889" y="34.12302" type="traffic_light"/>
    <node id="765164" x="-118.28911" y="34.07898" type="traffic_light"/>
    <node id="769431" x="-118.45664" y="34.15843" type="traffic_light"/>
    <node id="769430" x="-118.45658" y="34.15818" type="traffic_light"/>
    <node id="717610" x="-118.39497" y="34.17886" type="traffic_light"/>
    <node id="767053" x="-118.46775" y="34.17091" type="traffic_light"/>
    <node id="767621" x="-118.22969" y="34.13486" type="traffic_light"/>
    <node id="772596" x="-118.50495" y="34.17126" type="traffic_light"/>
    <node id="772597" x="-118.50495" y="34.17109" type="traffic_light"/>
    <node id="767350" x="-118.47045" y="34.18011" type="traffic_light"/>
    <node id="767351" x="-118.47022" y="34.18022" type="traffic_light"/>
    <node id="716571" x="-118.40337" y="34.2" type="traffic_light"/>
    <node id="773023" x="-118.24348" y="34.05773" type="traffic_light"/>
    <node id="767585" x="-118.22432" y="34.16556" type="traffic_light"/>
    <node id="773024" x="-118.24357" y="34.05759" type="traffic_light"/>
    <node id="717483" x="-118.33698" y="34.11684" type="traffic_light"/>
    <node id="718379" x="-118.27812" y="34.14224" type="traffic_light"/>
    <node id="717481" x="-118.32826" y="34.10634" type="traffic_light"/>
    <node id="717480" x="-118.32497" y="34.10478" type="traffic_light"/>
    <node id="717486" x="-118.34809" y="34.12974" type="traffic_light"/>
    <node id="764120" x="-118.40366" y="34.20164" type="traffic_light"/>
    <node id="772151" x="-118.49872" y="34.16928" type="traffic_light"/>
    <node id="718371" x="-118.23849" y="34.09017" type="traffic_light"/>
    <node id="717489" x="-118.36438" y="34.13876" type="traffic_light"/>
    <node id="717488" x="-118.36006" y="34.13561" type="traffic_light"/>
    <node id="717818" x="-118.46753" y="34.1722" type="traffic_light"/>
    <node id="718076" x="-118.2253" y="34.16339" type="traffic_light"/>
    <node id="718072" x="-118.2257" y="34.1491" type="traffic_light"/>
    <node id="767455" x="-118.22704" y="34.14347" type="traffic_light"/>
    <node id="767454" x="-118.22733" y="34.14352" type="traffic_light"/>
    <node id="761599" x="-118.27786" y="34.14226" type="traffic_light"/>
    <node id="717099" x="-118.24674" y="34.15648" type="traffic_light"/>
    <node id="773916" x="-118.2852" y="34.15247" type="traffic_light"/>
    <node id="716968" x="-118.29809" y="34.16588" type="traffic_light"/>
    <node id="769467" x="-118.39699" y="34.15451" type="traffic_light"/>
    <node id="717576" x="-118.2957" y="34.15559" type="traffic_light"/>
    <node id="717573" x="-118.325" y="34.15384" type="traffic_light"/>
    <node id="717572" x="-118.32751" y="34.15351" type="traffic_light"/>
    <node id="717571" x="-118.35921" y="34.15326" type="traffic_light"/>
    <node id="717570" x="-118.35921" y="34.15302" type="traffic_light"/>
    <node id="764760" x="-118.35506" y="34.13401" type="traffic_light"/>
    <node id="718089" x="-118.27372" y="34.12769" type="traffic_light"/>
    <node id="769847" x="-118.22351" y="34.20983" type="traffic_light"/>
    <node id="717608" x="-118.38812" y="34.17154" type="traffic_light"/>
    <node id="767523" x="-118.24209" y="34.11439" type="traffic_light"/>
    <node id="716942" x="-118.21451" y="34.0593" type="traffic_light"/>
    <node id="718090" x="-118.27969" y="34.14847" type="traffic_light"/>
    <node id="769867" x="-118.23931" y="34.21846" type="traffic_light"/>
    <node id="717472" x="-118.31601" y="34.10045" type="traffic_light"/>
    <node id="717473" x="-118.31581" y="34.10054" type="traffic_light"/>
    <node id="759591" x="-118.26825" y="34.11521" type="traffic_light"/>
    <node id="764781" x="-118.47012" y="34.16037" type="traffic_light"/>
    <node id="765099" x="-118.47224" y="34.16378" type="traffic_light"/>
    <node id="762329" x="-118.22862" y="34.13904" type="traffic_light"/>
    <node id="716953" x="-118.24279" y="34.09458" type="traffic_light"/>
    <node id="716951" x="-118.23182" y="34.08581" type="traffic_light"/>
    <node id="767509" x="-118.24819" y="34.11059" type="traffic_light"/>
    <node id="765182" x="-118.25126" y="34.06491" type="traffic_light"/>
    <node id="769358" x="-118.42222" y="34.15679" type="traffic_light"/>
    <node id="772513" x="-118.23661" y="34.06871" type="traffic_light"/>
    <node id="716958" x="-118.26501" y="34.11167" type="traffic_light"/>
    <node id="718496" x="-118.34232" y="34.15403" type="traffic_light"/>
    <node id="769346" x="-118.40424" y="34.15677" type="traffic_light"/>
    <node id="773904" x="-118.30266" y="34.15641" type="traffic_light"/>
    <node id="718499" x="-118.31253" y="34.15469" type="traffic_light"/>
    <node id="764853" x="-118.25102" y="34.06461" type="traffic_light"/>
    <node id="761003" x="-118.30841" y="34.15546" type="traffic_light"/>
    <node id="717502" x="-118.47484" y="34.16521" type="traffic_light"/>
    <node id="759602" x="-118.27178" y="34.12199" type="traffic_light"/>
    <node id="717504" x="-118.49166" y="34.16519" type="traffic_light"/>
    <node id="763995" x="-118.40931" y="34.21979" type="traffic_light"/>
    <node id="717508" x="-118.51814" y="34.17112" type="traffic_light"/>
    <node id="765265" x="-118.47395" y="34.18529" type="traffic_light"/>
    <node id="773996" x="-118.21587" y="34.14511" type="traffic_light"/>
    <node id="773995" x="-118.21587" y="34.14483" type="traffic_light"/>
    <node id="717469" x="-118.31366" y="34.0971" type="traffic_light"/>
    <node id="717468" x="-118.31381" y="34.09699" type="traffic_light"/>
    <node id="764106" x="-118.38801" y="34.17169" type="traffic_light"/>
    <node id="717465" x="-118.30907" y="34.09373" type="traffic_light"/>
    <node id="764794" x="-118.46808" y="34.16028" type="traffic_light"/>
    <node id="717466" x="-118.30918" y="34.09359" type="traffic_light"/>
    <node id="717461" x="-118.30174" y="34.08558" type="traffic_light"/>
    <node id="717460" x="-118.30161" y="34.08571" type="traffic_light"/>
    <node id="717463" x="-118.3059" y="34.09004" type="traffic_light"/>
    <node id="717462" x="-118.30607" y="34.08993" type="traffic_light"/>
    <node id="769345" x="-118.40441" y="34.15655" type="traffic_light"/>
    <node id="716943" x="-118.21492" y="34.05987" type="traffic_light"/>
    <node id="772669" x="-118.22834" y="34.07828" type="traffic_light"/>
    <node id="717582" x="-118.26092" y="34.15646" type="traffic_light"/>
    <node id="717583" x="-118.25506" y="34.15627" type="traffic_light"/>
    <node id="717580" x="-118.26359" y="34.1562" type="traffic_light"/>
    <node id="716949" x="-118.22974" y="34.08406" type="traffic_light"/>
    <node id="717587" x="-118.23893" y="34.15402" type="traffic_light"/>
    <node id="772178" x="-118.49885" y="34.16903" type="traffic_light"/>
    <node id="717585" x="-118.24188" y="34.15564" type="traffic_light"/>
    <node id="716939" x="-118.21724" y="34.04301" type="traffic_light"/>
    <node id="768469" x="-118.35993" y="34.13583" type="traffic_light"/>
    <node id="764101" x="-118.38246" y="34.16421" type="traffic_light"/>
    <node id="767554" x="-118.23143" y="34.11966" type="traffic_light"/>
    <node id="773975" x="-118.22251" y="34.14584" type="traffic_light"/>
    <node id="773974" x="-118.22251" y="34.14559" type="traffic_light"/>
    <node id="717510" x="-118.51976" y="34.17128" type="traffic_light"/>
    <node id="717513" x="-118.5368" y="34.17339" type="traffic_light"/>
    <node id="717825" x="-118.47307" y="34.22164" type="traffic_light"/>
    <node id="767495" x="-118.24992" y="34.10377" type="traffic_light"/>
    <node id="767494" x="-118.24962" y="34.10377" type="traffic_light"/>
    <node id="717821" x="-118.47361" y="34.20112" type="traffic_light"/>
    <node id="717823" x="-118.47326" y="34.20264" type="traffic_light"/>
    <node id="717458" x="-118.29755" y="34.08265" type="traffic_light"/>
    <node id="717459" x="-118.29729" y="34.08294" type="traffic_light"/>
    <node id="769926" x="-118.23113" y="34.21356" type="traffic_light"/>
    <node id="764858" x="-118.3754" y="34.1527" type="traffic_light"/>
    <node id="717450" x="-118.27362" y="34.07488" type="traffic_light"/>
    <node id="717452" x="-118.27356" y="34.07502" type="traffic_light"/>
    <node id="717453" x="-118.28093" y="34.07696" type="traffic_light"/>
    <node id="759772" x="-118.30539" y="34.17115" type="traffic_light"/>
    <node id="717456" x="-118.29325" y="34.08102" type="traffic_light"/>
    <node id="771673" x="-118.22871" y="34.07787" type="traffic_light"/>
    <node id="772167" x="-118.47985" y="34.16526" type="traffic_light"/>
    <node id="769372" x="-118.3173" y="34.1027" type="traffic_light"/>
    <node id="774204" x="-118.34172" y="34.15397" type="traffic_light"/>
    <node id="769806" x="-118.18442" y="34.19638" type="traffic_light"/>
    <node id="717590" x="-118.23182" y="34.14929" type="traffic_light"/>
    <node id="717592" x="-118.2243" y="34.14604" type="traffic_light"/>
    <node id="717595" x="-118.1829" y="34.14163" type="traffic_light"/>
    <node id="772168" x="-118.47985" y="34.16542" type="traffic_light"/>
    <node id="718141" x="-118.37456" y="34.15133" type="traffic_light"/>
    <node id="769373" x="-118.31747" y="34.10262" type="traffic_light"/>
</nodes>