<nodes>
    <node id="773869" x="931737.8339984405" y="3789255.234625467" type="traffic_light" />
    <node id="767541" x="939350.3875316542" y="3785295.680109917" type="traffic_light" />
    <node id="767542" x="939330.8819281044" y="3785317.02181806" type="traffic_light" />
    <node id="717447" x="936830.4140409955" y="3780312.857622743" type="traffic_light" />
    <node id="717446" x="937020.6488125791" y="3780203.7467185245" type="traffic_light" />
    <node id="717445" x="937623.7478193467" y="3779976.9603467938" type="traffic_light" />
    <node id="773062" x="940071.8594111616" y="3778371.9661853616" type="traffic_light" />
    <node id="767620" x="940054.0363892533" y="3787403.711755329" type="traffic_light" />
    <node id="737529" x="917176.2253886976" y="3793899.3309386647" type="traffic_light" />
    <node id="717816" x="917862.4203582992" y="3788699.847855154" type="traffic_light" />
    <node id="765604" x="925790.4188024169" y="3790004.8818649994" type="traffic_light" />
    <node id="767471" x="940366.6881982823" y="3789871.8186839256" type="traffic_light" />
    <node id="716339" x="934932.0515896648" y="3780862.5056764167" type="traffic_light" />
    <node id="773906" x="933172.0505649217" y="3789502.63483579" type="traffic_light" />
    <node id="765273" x="917162.7662597456" y="3792436.0639590174" type="traffic_light" />
    <node id="716331" x="937328.8457444923" y="3780066.736867394" type="traffic_light" />
    <node id="771667" x="939953.4031854519" y="3780531.65354422" type="traffic_light" />
    <node id="716337" x="935499.2158013767" y="3780789.698949959" type="traffic_light" />
    <node id="769953" x="942391.9832429001" y="3795509.5201682793" type="traffic_light" />
    <node id="769402" x="929989.0797388763" y="3785390.277213075" type="traffic_light" />
    <node id="769403" x="929974.5004783988" y="3785365.1356359585" type="traffic_light" />
    <node id="769819" x="942570.9372631268" y="3795420.0494763" type="traffic_light" />
    <node id="769405" x="929434.5388819559" y="3785964.561395576" type="traffic_light" />
    <node id="716941" x="941838.2998212847" y="3778898.569814848" type="traffic_light" />
    <node id="717578" x="936125.6145862087" y="3789436.8687533736" type="traffic_light" />
    <node id="716960" x="936217.3950613306" y="3785706.1168288053" type="traffic_light" />
    <node id="717804" x="917474.6812641122" y="3781915.4812802537" type="traffic_light" />
    <node id="767572" x="940137.3390886965" y="3786830.1364688613" type="traffic_light" />
    <node id="767573" x="940109.797133868" y="3786825.508648693" type="traffic_light" />
    <node id="773012" x="941100.336540037" y="3781782.5382191823" type="traffic_light" />
    <node id="773013" x="941110.4065699046" y="3781765.2072281404" type="traffic_light" />
    <node id="764424" x="924567.1174016334" y="3791576.935207245" type="traffic_light" />
    <node id="769388" x="930477.3057581162" y="3784224.4686011635" type="traffic_light" />
    <node id="716328" x="938130.8991406919" y="3779723.492861763" type="traffic_light" />
    <node id="717819" x="917198.5882966936" y="3792254.1288838126" type="traffic_light" />
    <node id="769941" x="942164.5730588022" y="3795528.830698721" type="traffic_light" />
    <node id="760987" x="929701.4618524113" y="3789008.30185549" type="traffic_light" />
    <node id="718204" x="933815.901845839" y="3789399.965388964" type="traffic_light" />
    <node id="718045" x="939444.1131754079" y="3779838.0657061916" type="traffic_light" />
    <node id="769418" x="929448.9660706222" y="3785993.0326087484" type="traffic_light" />
    <node id="768066" x="926541.4736946687" y="3788596.1399245276" type="traffic_light" />
    <node id="772140" x="917232.0736819548" y="3789712.9210150014" type="traffic_light" />
    <node id="773927" x="935252.5289868892" y="3789156.0369051746" type="traffic_light" />
    <node id="760024" x="918192.1462900024" y="3789123.8526507444" type="traffic_light" />
    <node id="774012" x="942567.305384588" y="3788949.3681898923" type="traffic_light" />
    <node id="774011" x="942581.37955882" y="3788925.5515935533" type="traffic_light" />
    <node id="767609" x="940896.5628674931" y="3793083.4494870873" type="traffic_light" />
    <node id="769359" x="922143.3572137827" y="3789000.327866896" type="traffic_light" />
    <node id="760650" x="940065.446946751" y="3780749.405252939" type="traffic_light" />
    <node id="716956" x="937788.8139688233" y="3784151.3884800994" type="traffic_light" />
    <node id="769831" x="942291.9097990587" y="3795494.781716536" type="traffic_light" />
    <node id="761604" x="934620.2171685277" y="3789288.0746990517" type="traffic_light" />
    <node id="717495" x="922964.5173558238" y="3789041.729581902" type="traffic_light" />
    <node id="716554" x="936503.4276883175" y="3789586.82600326" type="traffic_light" />
    <node id="773953" x="934030.0781622139" y="3789388.7242775727" type="traffic_light" />
    <node id="767470" x="940396.7294883103" y="3789882.1292757844" type="traffic_light" />
    <node id="716955" x="938876.2484239333" y="3783001.5213158987" type="traffic_light" />
    <node id="764949" x="929235.5219196074" y="3786230.2546533104" type="traffic_light" />
    <node id="773954" x="934028.9491607967" y="3789413.1486674133" type="traffic_light" />
    <node id="767366" x="917139.3337157054" y="3794956.5966377575" type="traffic_light" />
    <node id="769444" x="920587.0811011139" y="3788813.697279518" type="traffic_light" />
    <node id="773939" x="926766.8745277748" y="3788805.5074222097" type="traffic_light" />
    <node id="774067" x="934871.732296177" y="3789249.653165222" type="traffic_light" />
    <node id="769443" x="920564.9102786663" y="3788833.838806501" type="traffic_light" />
    <node id="767750" x="942391.4180303281" y="3782894.6213444923" type="traffic_light" />
    <node id="767751" x="942408.967838482" y="3782895.446352624" type="traffic_light" />
    <node id="767610" x="940866.1152150717" y="3793082.018136526" type="traffic_light" />
    <node id="773880" x="928965.4690632131" y="3788983.5525810057" type="traffic_light" />
    <node id="764766" x="928597.5247407302" y="3786709.5408072732" type="traffic_light" />
    <node id="717497" x="922843.4934210926" y="3789059.638956464" type="traffic_light" />
    <node id="717490" x="926888.8667656288" y="3788196.9811427533" type="traffic_light" />
    <node id="717491" x="926900.9814684975" y="3788215.330883474" type="traffic_light" />
    <node id="717492" x="926104.3520900466" y="3788955.6376255034" type="traffic_light" />
    <node id="717493" x="924552.3442553371" y="3788857.5322175263" type="traffic_light" />
    <node id="765176" x="928798.6387231373" y="3786660.866265715" type="traffic_light" />
    <node id="717498" x="921172.3129089162" y="3788857.7245768765" type="traffic_light" />
    <node id="717499" x="919750.9848722297" y="3788899.7559372196" type="traffic_light" />
    <node id="765171" x="917768.5836354238" y="3790060.4602645617" type="traffic_light" />
    <node id="718064" x="938730.0715707298" y="3784905.1078808126" type="traffic_light" />
    <node id="718066" x="940155.2925280797" y="3786091.051074716" type="traffic_light" />
    <node id="765164" x="934820.9435576875" y="3780943.0421091192" type="traffic_light" />
    <node id="769431" x="918952.250431325" y="3789060.9659014954" type="traffic_light" />
    <node id="769430" x="918959.0257427034" y="3789033.4603261277" type="traffic_light" />
    <node id="717610" x="924540.881496654" y="3791584.6473140614" type="traffic_light" />
    <node id="767053" x="917865.3080861236" y="3790400.6802636255" type="traffic_light" />
    <node id="767621" x="940019.8777299991" y="3787402.1120878584" type="traffic_light" />
    <node id="772596" x="914431.1967617213" y="3790287.3427062877" type="traffic_light" />
    <node id="772597" x="914432.0300483715" y="3790268.471369172" type="traffic_light" />
    <node id="767350" x="917570.7314440049" y="3791410.8822667114" type="traffic_light" />
    <node id="767351" x="917591.4075915716" y="3791424.0377963707" type="traffic_light" />
    <node id="716571" x="923659.8342697858" y="3793896.440700175" type="traffic_light" />
    <node id="773023" x="939146.2205215677" y="3778779.409216838" type="traffic_light" />
    <node id="767585" x="940355.7842392682" y="3790833.7789365132" type="traffic_light" />
    <node id="773024" x="939138.6284024052" y="3778763.4785455605" type="traffic_light" />
    <node id="717483" x="930206.6196443973" y="3784942.9927935847" type="traffic_light" />
    <node id="718379" x="935510.8642662949" y="3788013.140445985" type="traffic_light" />
    <node id="717481" x="931065.2066478308" y="3783814.1779870065" type="traffic_light" />
    <node id="717480" x="931376.9703624917" y="3783654.9171901247" type="traffic_light" />
    <node id="717486" x="929115.4063727664" y="3786328.2308054115" type="traffic_light" />
    <node id="764120" x="923624.857081389" y="3794077.2945335736" type="traffic_light" />
    <node id="772151" x="915015.7425086108" y="3790092.946352395" type="traffic_light" />
    <node id="718371" x="939439.2395160878" y="3782402.4860437796" type="traffic_light" />
    <node id="717489" x="927565.9503382589" y="3787261.0523957037" type="traffic_light" />
    <node id="717488" x="927980.6565187592" y="3786929.507156697" type="traffic_light" />
    <node id="717818" x="917879.2311752085" y="3790544.786946721" type="traffic_light" />
    <node id="718076" x="940276.6438741905" y="3790588.6137837744" type="traffic_light" />
    <node id="718072" x="940314.1266542446" y="3789000.3495472725" type="traffic_light" />
    <node id="767455" x="940219.7335463448" y="3788369.4869152135" type="traffic_light" />
    <node id="767454" x="940192.7031090437" y="3788373.7835488203" type="traffic_light" />
    <node id="761599" x="935534.7619737184" y="3788016.473560005" type="traffic_light" />
    <node id="717099" x="938333.7862581271" y="3789728.843317359" type="traffic_light" />
    <node id="773916" x="934804.7290307735" y="3789118.6031663916" type="traffic_light" />
    <node id="716968" x="933546.2478958279" y="3790552.3660934134" type="traffic_light" />
    <node id="769467" x="924476.735358695" y="3788873.0251907334" type="traffic_light" />
    <node id="717576" x="933819.5933033827" y="3789420.1621667338" type="traffic_light" />
    <node id="717573" x="931124.3003705409" y="3789101.3303413806" type="traffic_light" />
    <node id="717572" x="930894.3207585476" y="3789054.0614616037" type="traffic_light" />
    <node id="717571" x="927969.8458345621" y="3788892.514149742" type="traffic_light" />
    <node id="717570" x="927971.0600739566" y="3788865.8702887692" type="traffic_light" />
    <node id="764760" x="928450.3228339374" y="3786772.914246499" type="traffic_light" />
    <node id="718089" x="935991.9733400277" y="3786416.623457999" type="traffic_light" />
    <node id="769847" x="940199.7588645571" y="3795752.331756252" type="traffic_light" />
    <node id="717608" x="925209.7160836925" y="3790800.640793697" type="traffic_light" />
    <node id="767523" x="938981.2236973774" y="3785075.936617136" type="traffic_light" />
    <node id="716942" x="941815.0299166781" y="3779078.8459236957" type="traffic_light" />
    <node id="718090" x="935333.8802399829" y="3788698.081784423" type="traffic_light" />
    <node id="769867" x="938697.5263436926" y="3796642.1111859772" type="traffic_light" />
    <node id="717472" x="932226.5027006421" y="3783212.1859132308" type="traffic_light" />
    <node id="717473" x="932244.5145329509" y="3783223.0260686944" type="traffic_light" />
    <node id="759591" x="936561.3335091382" y="3785054.517976626" type="traffic_light" />
    <node id="764781" x="917698.6885886389" y="3789220.903368594" type="traffic_light" />
    <node id="765099" x="917486.2196803249" y="3789590.7449958106" type="traffic_light" />
    <node id="762329" x="940096.9226180225" y="3787870.8175680866" type="traffic_light" />
    <node id="716953" x="939019.2125485961" y="3782873.560209315" type="traffic_light" />
    <node id="716951" x="940077.9741913552" y="3781947.2097072154" type="traffic_light" />
    <node id="767509" x="938437.6031484895" y="3784627.7731442307" type="traffic_light" />
    <node id="765182" x="938390.2253871106" y="3779543.0731582656" type="traffic_light" />
    <node id="769358" x="922136.8717466872" y="3789021.171304696" type="traffic_light" />
    <node id="772513" x="939724.1440070601" y="3780028.0437556882" type="traffic_light" />
    <node id="716958" x="936878.7739118718" y="3784675.396553826" type="traffic_light" />
    <node id="718496" x="929524.7906848879" y="3789049.1689864695" type="traffic_light" />
    <node id="769346" x="923796.3041541646" y="3789093.6946449676" type="traffic_light" />
    <node id="773904" x="933173.0237175501" y="3789481.541146476" type="traffic_light" />
    <node id="718499" x="932270.8806907029" y="3789248.6074861493" type="traffic_light" />
    <node id="764853" x="938413.9504027046" y="3779510.7984502437" type="traffic_light" />
    <node id="761003" x="932647.1970031676" y="3789351.60503855" type="traffic_light" />
    <node id="717502" x="917239.2436885801" y="3789738.822319024" type="traffic_light" />
    <node id="759602" x="936200.4504805985" y="3785792.113467111" type="traffic_light" />
    <node id="717504" x="915687.2747572877" y="3789667.747075329" type="traffic_light" />
    <node id="763995" x="923012.7446048461" y="3796068.6540523698" type="traffic_light" />
    <node id="717508" x="913214.8774238572" y="3790218.1425018297" type="traffic_light" />
    <node id="765265" x="917222.2494325433" y="3791971.5464980905" type="traffic_light" />
    <node id="773996" x="941242.3011909398" y="3788599.9476216417" type="traffic_light" />
    <node id="773995" x="941243.7615651388" y="3788568.8607587866" type="traffic_light" />
    <node id="717469" x="932460.6274219148" y="3782850.24645881" type="traffic_light" />
    <node id="717468" x="932447.3349236775" y="3782837.3977854843" type="traffic_light" />
    <node id="764106" x="925219.1115609449" y="3790817.7528679576" type="traffic_light" />
    <node id="717465" x="932901.7607735388" y="3782495.6048913016" type="traffic_light" />
    <node id="764794" x="917887.3866641935" y="3789219.289283304" type="traffic_light" />
    <node id="717466" x="932892.3158638544" y="3782479.594962729" type="traffic_light" />
    <node id="717461" x="933620.4540874282" y="3781621.9645520495" type="traffic_light" />
    <node id="717460" x="933631.7975667316" y="3781636.950133232" type="traffic_light" />
    <node id="717463" x="933213.4032409466" y="3782099.41730935" type="traffic_light" />
    <node id="717462" x="933198.2630339212" y="3782086.4825732047" type="traffic_light" />
    <node id="769345" x="923781.7174138313" y="3789068.563598389" type="traffic_light" />
    <node id="716943" x="941774.1771984859" y="3779140.353388053" type="traffic_light" />
    <node id="772669" x="940438.5443462639" y="3781126.2368476824" type="traffic_light" />
    <node id="717582" x="937025.1358170897" y="3789665.6133074113" type="traffic_light" />
    <node id="717583" x="937566.9709411185" y="3789669.7095193625" type="traffic_light" />
    <node id="717580" x="936780.050037676" y="3789625.280501844" type="traffic_light" />
    <node id="716949" x="940279.1996396843" y="3781761.9030339657" type="traffic_light" />
    <node id="717587" x="939067.3918714594" y="3789489.4072732152" type="traffic_light" />
    <node id="772178" x="915004.9744519601" y="3790064.663942469" type="traffic_light" />
    <node id="717585" x="938786.7042902599" y="3789656.536419884" type="traffic_light" />
    <node id="716939" x="941647.4987136123" y="3777258.4418743425" type="traffic_light" />
    <node id="768469" x="927991.5448904721" y="3786954.477232936" type="traffic_light" />
    <node id="764101" x="925768.8920427095" y="3790010.580054343" type="traffic_light" />
    <node id="767554" x="939938.2214577325" y="3785707.0341133494" type="traffic_light" />
    <node id="773975" x="940625.5609217798" y="3788652.2210718137" type="traffic_light" />
    <node id="773974" x="940626.8630294348" y="3788624.465042782" type="traffic_light" />
    <node id="717510" x="913064.6233019459" y="3790229.324141448" type="traffic_light" />
    <node id="717513" x="911482.1358272119" y="3790394.4854031117" type="traffic_light" />
    <node id="717825" x="917123.8350610462" y="3796010.3670670795" type="traffic_light" />
    <node id="767495" x="938313.1250739049" y="3783863.155181056" type="traffic_light" />
    <node id="767494" x="938340.8312160776" y="3783864.4461022546" type="traffic_light" />
    <node id="717821" x="917175.4330696652" y="3793730.2265615836" type="traffic_light" />
    <node id="717823" x="917200.2063509199" y="3793900.3981752945" type="traffic_light" />
    <node id="717458" x="934022.4851889324" y="3781314.5127349636" type="traffic_light" />
    <node id="717459" x="934045.018363802" y="3781347.81550222" type="traffic_light" />
    <node id="769926" x="939477.4769240814" y="3796133.4573344844" type="traffic_light" />
    <node id="764858" x="926478.4333693539" y="3788762.3680314" type="traffic_light" />
    <node id="717450" x="936272.9877444868" y="3780554.042583088" type="traffic_light" />
    <node id="717452" x="936277.8107862176" y="3780569.842253192" type="traffic_light" />
    <node id="717453" x="935586.9790180023" y="3780753.7052243915" type="traffic_light" />
    <node id="759772" x="932845.5967189661" y="3791106.344892028" type="traffic_light" />
    <node id="717456" x="934428.0457669469" y="3781151.8697156254" type="traffic_light" />
    <node id="771673" x="940406.4916480216" y="3781079.1185246278" type="traffic_light" />
    <node id="772167" x="916776.6976041009" y="3789723.8366434774" type="traffic_light" />
    <node id="769372" x="932095.8941193246" y="3783456.504926094" type="traffic_light" />
    <node id="774204" x="929580.4718775728" y="3789045.041076713" type="traffic_light" />
    <node id="769806" x="943876.1247823301" y="3794429.112467613" type="traffic_light" />
    <node id="717590" x="939748.2316798226" y="3788994.975283458" type="traffic_light" />
    <node id="717592" x="940459.2866042263" y="3788666.675796367" type="traffic_light" />
    <node id="717595" x="944304.0688450816" y="3788357.0457346127" type="traffic_light" />
    <node id="772168" x="916775.9090451989" y="3789741.598122208" type="traffic_light" />
    <node id="718141" x="926562.8683203144" y="3788613.798256138" type="traffic_light" />
    <node id="769373" x="932080.6022209018" y="3783446.9024428097" type="traffic_light" />
</nodes>