<edges>
    <edge id="773869_773869" from="773869" to="773869" x1="931737.8339984405" y1="3789255.234625467" x2="931737.8339984405" y2="3789255.234625467" />
    <edge id="773869_773906" from="773869" to="773906" x1="931737.8339984405" y1="3789255.234625467" x2="933172.0505649217" y2="3789502.63483579" />
    <edge id="773869_718204" from="773869" to="718204" x1="931737.8339984405" y1="3789255.234625467" x2="933815.901845839" y2="3789399.965388964" />
    <edge id="773869_773927" from="773869" to="773927" x1="931737.8339984405" y1="3789255.234625467" x2="935252.5289868892" y2="3789156.0369051746" />
    <edge id="773869_773953" from="773869" to="773953" x1="931737.8339984405" y1="3789255.234625467" x2="934030.0781622139" y2="3789388.7242775727" />
    <edge id="773869_773916" from="773869" to="773916" x1="931737.8339984405" y1="3789255.234625467" x2="934804.7290307735" y2="3789118.6031663916" />
    <edge id="773869_717572" from="773869" to="717572" x1="931737.8339984405" y1="3789255.234625467" x2="930894.3207585476" y2="3789054.0614616037" />
    <edge id="773869_718090" from="773869" to="718090" x1="931737.8339984405" y1="3789255.234625467" x2="935333.8802399829" y2="3788698.081784423" />
    <edge id="773869_718496" from="773869" to="718496" x1="931737.8339984405" y1="3789255.234625467" x2="929524.7906848879" y2="3789049.1689864695" />
    <edge id="773869_773904" from="773869" to="773904" x1="931737.8339984405" y1="3789255.234625467" x2="933173.0237175501" y2="3789481.541146476" />
    <edge id="773869_761003" from="773869" to="761003" x1="931737.8339984405" y1="3789255.234625467" x2="932647.1970031676" y2="3789351.60503855" />
    <edge id="773869_774204" from="773869" to="774204" x1="931737.8339984405" y1="3789255.234625467" x2="929580.4718775728" y2="3789045.041076713" />
    <edge id="767541_767541" from="767541" to="767541" x1="939350.3875316542" y1="3785295.680109917" x2="939350.3875316542" y2="3785295.680109917" />
    <edge id="767541_767542" from="767541" to="767542" x1="939350.3875316542" y1="3785295.680109917" x2="939330.8819281044" y2="3785317.02181806" />
    <edge id="767541_767620" from="767541" to="767620" x1="939350.3875316542" y1="3785295.680109917" x2="940054.0363892533" y2="3787403.711755329" />
    <edge id="767541_767573" from="767541" to="767573" x1="939350.3875316542" y1="3785295.680109917" x2="940109.797133868" y2="3786825.508648693" />
    <edge id="767541_718064" from="767541" to="718064" x1="939350.3875316542" y1="3785295.680109917" x2="938730.0715707298" y2="3784905.1078808126" />
    <edge id="767541_767455" from="767541" to="767455" x1="939350.3875316542" y1="3785295.680109917" x2="940219.7335463448" y2="3788369.4869152135" />
    <edge id="767541_767554" from="767541" to="767554" x1="939350.3875316542" y1="3785295.680109917" x2="939938.2214577325" y2="3785707.0341133494" />
    <edge id="767541_767495" from="767541" to="767495" x1="939350.3875316542" y1="3785295.680109917" x2="938313.1250739049" y2="3783863.155181056" />
    <edge id="767542_767541" from="767542" to="767541" x1="939330.8819281044" y1="3785317.02181806" x2="939350.3875316542" y2="3785295.680109917" />
    <edge id="767542_767542" from="767542" to="767542" x1="939330.8819281044" y1="3785317.02181806" x2="939330.8819281044" y2="3785317.02181806" />
    <edge id="767542_767573" from="767542" to="767573" x1="939330.8819281044" y1="3785317.02181806" x2="940109.797133868" y2="3786825.508648693" />
    <edge id="767542_716956" from="767542" to="716956" x1="939330.8819281044" y1="3785317.02181806" x2="937788.8139688233" y2="3784151.3884800994" />
    <edge id="767542_718064" from="767542" to="718064" x1="939330.8819281044" y1="3785317.02181806" x2="938730.0715707298" y2="3784905.1078808126" />
    <edge id="767542_767523" from="767542" to="767523" x1="939330.8819281044" y1="3785317.02181806" x2="938981.2236973774" y2="3785075.936617136" />
    <edge id="767542_759591" from="767542" to="759591" x1="939330.8819281044" y1="3785317.02181806" x2="936561.3335091382" y2="3785054.517976626" />
    <edge id="767542_767554" from="767542" to="767554" x1="939330.8819281044" y1="3785317.02181806" x2="939938.2214577325" y2="3785707.0341133494" />
    <edge id="767542_767495" from="767542" to="767495" x1="939330.8819281044" y1="3785317.02181806" x2="938313.1250739049" y2="3783863.155181056" />
    <edge id="717447_717447" from="717447" to="717447" x1="936830.4140409955" y1="3780312.857622743" x2="936830.4140409955" y2="3780312.857622743" />
    <edge id="717447_717446" from="717447" to="717446" x1="936830.4140409955" y1="3780312.857622743" x2="937020.6488125791" y2="3780203.7467185245" />
    <edge id="717447_716339" from="717447" to="716339" x1="936830.4140409955" y1="3780312.857622743" x2="934932.0515896648" y2="3780862.5056764167" />
    <edge id="717447_716331" from="717447" to="716331" x1="936830.4140409955" y1="3780312.857622743" x2="937328.8457444923" y2="3780066.736867394" />
    <edge id="717447_716337" from="717447" to="716337" x1="936830.4140409955" y1="3780312.857622743" x2="935499.2158013767" y2="3780789.698949959" />
    <edge id="717447_716328" from="717447" to="716328" x1="936830.4140409955" y1="3780312.857622743" x2="938130.8991406919" y2="3779723.492861763" />
    <edge id="717447_765164" from="717447" to="765164" x1="936830.4140409955" y1="3780312.857622743" x2="934820.9435576875" y2="3780943.0421091192" />
    <edge id="717447_764853" from="717447" to="764853" x1="936830.4140409955" y1="3780312.857622743" x2="938413.9504027046" y2="3779510.7984502437" />
    <edge id="717447_717460" from="717447" to="717460" x1="936830.4140409955" y1="3780312.857622743" x2="933631.7975667316" y2="3781636.950133232" />
    <edge id="717447_717459" from="717447" to="717459" x1="936830.4140409955" y1="3780312.857622743" x2="934045.018363802" y2="3781347.81550222" />
    <edge id="717447_717450" from="717447" to="717450" x1="936830.4140409955" y1="3780312.857622743" x2="936272.9877444868" y2="3780554.042583088" />
    <edge id="717447_717452" from="717447" to="717452" x1="936830.4140409955" y1="3780312.857622743" x2="936277.8107862176" y2="3780569.842253192" />
    <edge id="717447_717453" from="717447" to="717453" x1="936830.4140409955" y1="3780312.857622743" x2="935586.9790180023" y2="3780753.7052243915" />
    <edge id="717447_717456" from="717447" to="717456" x1="936830.4140409955" y1="3780312.857622743" x2="934428.0457669469" y2="3781151.8697156254" />
    <edge id="717446_717447" from="717446" to="717447" x1="937020.6488125791" y1="3780203.7467185245" x2="936830.4140409955" y2="3780312.857622743" />
    <edge id="717446_717446" from="717446" to="717446" x1="937020.6488125791" y1="3780203.7467185245" x2="937020.6488125791" y2="3780203.7467185245" />
    <edge id="717446_773062" from="717446" to="773062" x1="937020.6488125791" y1="3780203.7467185245" x2="940071.8594111616" y2="3778371.9661853616" />
    <edge id="717446_716331" from="717446" to="716331" x1="937020.6488125791" y1="3780203.7467185245" x2="937328.8457444923" y2="3780066.736867394" />
    <edge id="717446_771667" from="717446" to="771667" x1="937020.6488125791" y1="3780203.7467185245" x2="939953.4031854519" y2="3780531.65354422" />
    <edge id="717446_716337" from="717446" to="716337" x1="937020.6488125791" y1="3780203.7467185245" x2="935499.2158013767" y2="3780789.698949959" />
    <edge id="717446_716328" from="717446" to="716328" x1="937020.6488125791" y1="3780203.7467185245" x2="938130.8991406919" y2="3779723.492861763" />
    <edge id="717446_765164" from="717446" to="765164" x1="937020.6488125791" y1="3780203.7467185245" x2="934820.9435576875" y2="3780943.0421091192" />
    <edge id="717446_773023" from="717446" to="773023" x1="937020.6488125791" y1="3780203.7467185245" x2="939146.2205215677" y2="3778779.409216838" />
    <edge id="717446_773024" from="717446" to="773024" x1="937020.6488125791" y1="3780203.7467185245" x2="939138.6284024052" y2="3778763.4785455605" />
    <edge id="717446_765182" from="717446" to="765182" x1="937020.6488125791" y1="3780203.7467185245" x2="938390.2253871106" y2="3779543.0731582656" />
    <edge id="717446_772513" from="717446" to="772513" x1="937020.6488125791" y1="3780203.7467185245" x2="939724.1440070601" y2="3780028.0437556882" />
    <edge id="717446_764853" from="717446" to="764853" x1="937020.6488125791" y1="3780203.7467185245" x2="938413.9504027046" y2="3779510.7984502437" />
    <edge id="717446_717450" from="717446" to="717450" x1="937020.6488125791" y1="3780203.7467185245" x2="936272.9877444868" y2="3780554.042583088" />
    <edge id="717446_717452" from="717446" to="717452" x1="937020.6488125791" y1="3780203.7467185245" x2="936277.8107862176" y2="3780569.842253192" />
    <edge id="717446_717456" from="717446" to="717456" x1="937020.6488125791" y1="3780203.7467185245" x2="934428.0457669469" y2="3781151.8697156254" />
    <edge id="717445_717447" from="717445" to="717447" x1="937623.7478193467" y1="3779976.9603467938" x2="936830.4140409955" y2="3780312.857622743" />
    <edge id="717445_717446" from="717445" to="717446" x1="937623.7478193467" y1="3779976.9603467938" x2="937020.6488125791" y2="3780203.7467185245" />
    <edge id="717445_717445" from="717445" to="717445" x1="937623.7478193467" y1="3779976.9603467938" x2="937623.7478193467" y2="3779976.9603467938" />
    <edge id="717445_716331" from="717445" to="716331" x1="937623.7478193467" y1="3779976.9603467938" x2="937328.8457444923" y2="3780066.736867394" />
    <edge id="717445_716337" from="717445" to="716337" x1="937623.7478193467" y1="3779976.9603467938" x2="935499.2158013767" y2="3780789.698949959" />
    <edge id="717445_716328" from="717445" to="716328" x1="937623.7478193467" y1="3779976.9603467938" x2="938130.8991406919" y2="3779723.492861763" />
    <edge id="717445_765164" from="717445" to="765164" x1="937623.7478193467" y1="3779976.9603467938" x2="934820.9435576875" y2="3780943.0421091192" />
    <edge id="717445_773024" from="717445" to="773024" x1="937623.7478193467" y1="3779976.9603467938" x2="939138.6284024052" y2="3778763.4785455605" />
    <edge id="717445_764853" from="717445" to="764853" x1="937623.7478193467" y1="3779976.9603467938" x2="938413.9504027046" y2="3779510.7984502437" />
    <edge id="717445_717459" from="717445" to="717459" x1="937623.7478193467" y1="3779976.9603467938" x2="934045.018363802" y2="3781347.81550222" />
    <edge id="717445_717450" from="717445" to="717450" x1="937623.7478193467" y1="3779976.9603467938" x2="936272.9877444868" y2="3780554.042583088" />
    <edge id="717445_717452" from="717445" to="717452" x1="937623.7478193467" y1="3779976.9603467938" x2="936277.8107862176" y2="3780569.842253192" />
    <edge id="717445_717456" from="717445" to="717456" x1="937623.7478193467" y1="3779976.9603467938" x2="934428.0457669469" y2="3781151.8697156254" />
    <edge id="773062_773062" from="773062" to="773062" x1="940071.8594111616" y1="3778371.9661853616" x2="940071.8594111616" y2="3778371.9661853616" />
    <edge id="773062_771667" from="773062" to="771667" x1="940071.8594111616" y1="3778371.9661853616" x2="939953.4031854519" y2="3780531.65354422" />
    <edge id="773062_773023" from="773062" to="773023" x1="940071.8594111616" y1="3778371.9661853616" x2="939146.2205215677" y2="3778779.409216838" />
    <edge id="773062_773024" from="773062" to="773024" x1="940071.8594111616" y1="3778371.9661853616" x2="939138.6284024052" y2="3778763.4785455605" />
    <edge id="773062_716942" from="773062" to="716942" x1="940071.8594111616" y1="3778371.9661853616" x2="941815.0299166781" y2="3779078.8459236957" />
    <edge id="773062_765182" from="773062" to="765182" x1="940071.8594111616" y1="3778371.9661853616" x2="938390.2253871106" y2="3779543.0731582656" />
    <edge id="773062_716939" from="773062" to="716939" x1="940071.8594111616" y1="3778371.9661853616" x2="941647.4987136123" y2="3777258.4418743425" />
    <edge id="767620_767620" from="767620" to="767620" x1="940054.0363892533" y1="3787403.711755329" x2="940054.0363892533" y2="3787403.711755329" />
    <edge id="767620_767471" from="767620" to="767471" x1="940054.0363892533" y1="3787403.711755329" x2="940366.6881982823" y2="3789871.8186839256" />
    <edge id="767620_767572" from="767620" to="767572" x1="940054.0363892533" y1="3787403.711755329" x2="940137.3390886965" y2="3786830.1364688613" />
    <edge id="767620_774011" from="767620" to="774011" x1="940054.0363892533" y1="3787403.711755329" x2="942581.37955882" y2="3788925.5515935533" />
    <edge id="767620_718066" from="767620" to="718066" x1="940054.0363892533" y1="3787403.711755329" x2="940155.2925280797" y2="3786091.051074716" />
    <edge id="767620_767621" from="767620" to="767621" x1="940054.0363892533" y1="3787403.711755329" x2="940019.8777299991" y2="3787402.1120878584" />
    <edge id="767620_767585" from="767620" to="767585" x1="940054.0363892533" y1="3787403.711755329" x2="940355.7842392682" y2="3790833.7789365132" />
    <edge id="767620_767455" from="767620" to="767455" x1="940054.0363892533" y1="3787403.711755329" x2="940219.7335463448" y2="3788369.4869152135" />
    <edge id="767620_767454" from="767620" to="767454" x1="940054.0363892533" y1="3787403.711755329" x2="940192.7031090437" y2="3788373.7835488203" />
    <edge id="767620_717099" from="767620" to="717099" x1="940054.0363892533" y1="3787403.711755329" x2="938333.7862581271" y2="3789728.843317359" />
    <edge id="767620_762329" from="767620" to="762329" x1="940054.0363892533" y1="3787403.711755329" x2="940096.9226180225" y2="3787870.8175680866" />
    <edge id="767620_773995" from="767620" to="773995" x1="940054.0363892533" y1="3787403.711755329" x2="941243.7615651388" y2="3788568.8607587866" />
    <edge id="767620_773974" from="767620" to="773974" x1="940054.0363892533" y1="3787403.711755329" x2="940626.8630294348" y2="3788624.465042782" />
    <edge id="767620_717590" from="767620" to="717590" x1="940054.0363892533" y1="3787403.711755329" x2="939748.2316798226" y2="3788994.975283458" />
    <edge id="737529_737529" from="737529" to="737529" x1="917176.2253886976" y1="3793899.3309386647" x2="917176.2253886976" y2="3793899.3309386647" />
    <edge id="737529_765273" from="737529" to="765273" x1="917176.2253886976" y1="3793899.3309386647" x2="917162.7662597456" y2="3792436.0639590174" />
    <edge id="737529_767053" from="737529" to="767053" x1="917176.2253886976" y1="3793899.3309386647" x2="917865.3080861236" y2="3790400.6802636255" />
    <edge id="737529_767350" from="737529" to="767350" x1="917176.2253886976" y1="3793899.3309386647" x2="917570.7314440049" y2="3791410.8822667114" />
    <edge id="737529_765265" from="737529" to="765265" x1="917176.2253886976" y1="3793899.3309386647" x2="917222.2494325433" y2="3791971.5464980905" />
    <edge id="737529_717821" from="737529" to="717821" x1="917176.2253886976" y1="3793899.3309386647" x2="917175.4330696652" y2="3793730.2265615836" />
    <edge id="737529_717823" from="737529" to="717823" x1="917176.2253886976" y1="3793899.3309386647" x2="917200.2063509199" y2="3793900.3981752945" />
    <edge id="717816_717816" from="717816" to="717816" x1="917862.4203582992" y1="3788699.847855154" x2="917862.4203582992" y2="3788699.847855154" />
    <edge id="717816_760024" from="717816" to="760024" x1="917862.4203582992" y1="3788699.847855154" x2="918192.1462900024" y2="3789123.8526507444" />
    <edge id="717816_769430" from="717816" to="769430" x1="917862.4203582992" y1="3788699.847855154" x2="918959.0257427034" y2="3789033.4603261277" />
    <edge id="717816_717818" from="717816" to="717818" x1="917862.4203582992" y1="3788699.847855154" x2="917879.2311752085" y2="3790544.786946721" />
    <edge id="717816_717502" from="717816" to="717502" x1="917862.4203582992" y1="3788699.847855154" x2="917239.2436885801" y2="3789738.822319024" />
    <edge id="765604_765604" from="765604" to="765604" x1="925790.4188024169" y1="3790004.8818649994" x2="925790.4188024169" y2="3790004.8818649994" />
    <edge id="765604_764424" from="765604" to="764424" x1="925790.4188024169" y1="3790004.8818649994" x2="924567.1174016334" y2="3791576.935207245" />
    <edge id="765604_717608" from="765604" to="717608" x1="925790.4188024169" y1="3790004.8818649994" x2="925209.7160836925" y2="3790800.640793697" />
    <edge id="765604_764106" from="765604" to="764106" x1="925790.4188024169" y1="3790004.8818649994" x2="925219.1115609449" y2="3790817.7528679576" />
    <edge id="765604_764101" from="765604" to="764101" x1="925790.4188024169" y1="3790004.8818649994" x2="925768.8920427095" y2="3790010.580054343" />
    <edge id="767471_767471" from="767471" to="767471" x1="940366.6881982823" y1="3789871.8186839256" x2="940366.6881982823" y2="3789871.8186839256" />
    <edge id="767471_767609" from="767471" to="767609" x1="940366.6881982823" y1="3789871.8186839256" x2="940896.5628674931" y2="3793083.4494870873" />
    <edge id="767471_767470" from="767471" to="767470" x1="940366.6881982823" y1="3789871.8186839256" x2="940396.7294883103" y2="3789882.1292757844" />
    <edge id="767471_767585" from="767471" to="767585" x1="940366.6881982823" y1="3789871.8186839256" x2="940355.7842392682" y2="3790833.7789365132" />
    <edge id="767471_718072" from="767471" to="718072" x1="940366.6881982823" y1="3789871.8186839256" x2="940314.1266542446" y2="3789000.3495472725" />
    <edge id="767471_767454" from="767471" to="767454" x1="940366.6881982823" y1="3789871.8186839256" x2="940192.7031090437" y2="3788373.7835488203" />
    <edge id="767471_762329" from="767471" to="762329" x1="940366.6881982823" y1="3789871.8186839256" x2="940096.9226180225" y2="3787870.8175680866" />
    <edge id="767471_717587" from="767471" to="717587" x1="940366.6881982823" y1="3789871.8186839256" x2="939067.3918714594" y2="3789489.4072732152" />
    <edge id="767471_773974" from="767471" to="773974" x1="940366.6881982823" y1="3789871.8186839256" x2="940626.8630294348" y2="3788624.465042782" />
    <edge id="716339_717446" from="716339" to="717446" x1="934932.0515896648" y1="3780862.5056764167" x2="937020.6488125791" y2="3780203.7467185245" />
    <edge id="716339_716339" from="716339" to="716339" x1="934932.0515896648" y1="3780862.5056764167" x2="934932.0515896648" y2="3780862.5056764167" />
    <edge id="716339_716331" from="716339" to="716331" x1="934932.0515896648" y1="3780862.5056764167" x2="937328.8457444923" y2="3780066.736867394" />
    <edge id="716339_716337" from="716339" to="716337" x1="934932.0515896648" y1="3780862.5056764167" x2="935499.2158013767" y2="3780789.698949959" />
    <edge id="716339_716328" from="716339" to="716328" x1="934932.0515896648" y1="3780862.5056764167" x2="938130.8991406919" y2="3779723.492861763" />
    <edge id="716339_765164" from="716339" to="765164" x1="934932.0515896648" y1="3780862.5056764167" x2="934820.9435576875" y2="3780943.0421091192" />
    <edge id="716339_764853" from="716339" to="764853" x1="934932.0515896648" y1="3780862.5056764167" x2="938413.9504027046" y2="3779510.7984502437" />
    <edge id="716339_717460" from="716339" to="717460" x1="934932.0515896648" y1="3780862.5056764167" x2="933631.7975667316" y2="3781636.950133232" />
    <edge id="716339_717463" from="716339" to="717463" x1="934932.0515896648" y1="3780862.5056764167" x2="933213.4032409466" y2="3782099.41730935" />
    <edge id="716339_717459" from="716339" to="717459" x1="934932.0515896648" y1="3780862.5056764167" x2="934045.018363802" y2="3781347.81550222" />
    <edge id="716339_717450" from="716339" to="717450" x1="934932.0515896648" y1="3780862.5056764167" x2="936272.9877444868" y2="3780554.042583088" />
    <edge id="716339_717452" from="716339" to="717452" x1="934932.0515896648" y1="3780862.5056764167" x2="936277.8107862176" y2="3780569.842253192" />
    <edge id="716339_717453" from="716339" to="717453" x1="934932.0515896648" y1="3780862.5056764167" x2="935586.9790180023" y2="3780753.7052243915" />
    <edge id="716339_717456" from="716339" to="717456" x1="934932.0515896648" y1="3780862.5056764167" x2="934428.0457669469" y2="3781151.8697156254" />
    <edge id="773906_773869" from="773906" to="773869" x1="933172.0505649217" y1="3789502.63483579" x2="931737.8339984405" y2="3789255.234625467" />
    <edge id="773906_773906" from="773906" to="773906" x1="933172.0505649217" y1="3789502.63483579" x2="933172.0505649217" y2="3789502.63483579" />
    <edge id="773906_718204" from="773906" to="718204" x1="933172.0505649217" y1="3789502.63483579" x2="933815.901845839" y2="3789399.965388964" />
    <edge id="773906_773953" from="773906" to="773953" x1="933172.0505649217" y1="3789502.63483579" x2="934030.0781622139" y2="3789388.7242775727" />
    <edge id="773906_773916" from="773906" to="773916" x1="933172.0505649217" y1="3789502.63483579" x2="934804.7290307735" y2="3789118.6031663916" />
    <edge id="773906_717572" from="773906" to="717572" x1="933172.0505649217" y1="3789502.63483579" x2="930894.3207585476" y2="3789054.0614616037" />
    <edge id="773906_718496" from="773906" to="718496" x1="933172.0505649217" y1="3789502.63483579" x2="929524.7906848879" y2="3789049.1689864695" />
    <edge id="773906_773904" from="773906" to="773904" x1="933172.0505649217" y1="3789502.63483579" x2="933173.0237175501" y2="3789481.541146476" />
    <edge id="773906_718499" from="773906" to="718499" x1="933172.0505649217" y1="3789502.63483579" x2="932270.8806907029" y2="3789248.6074861493" />
    <edge id="773906_774204" from="773906" to="774204" x1="933172.0505649217" y1="3789502.63483579" x2="929580.4718775728" y2="3789045.041076713" />
    <edge id="765273_765273" from="765273" to="765273" x1="917162.7662597456" y1="3792436.0639590174" x2="917162.7662597456" y2="3792436.0639590174" />
    <edge id="765273_765171" from="765273" to="765171" x1="917162.7662597456" y1="3792436.0639590174" x2="917768.5836354238" y2="3790060.4602645617" />
    <edge id="765273_767053" from="765273" to="767053" x1="917162.7662597456" y1="3792436.0639590174" x2="917865.3080861236" y2="3790400.6802636255" />
    <edge id="765273_767350" from="765273" to="767350" x1="917162.7662597456" y1="3792436.0639590174" x2="917570.7314440049" y2="3791410.8822667114" />
    <edge id="765273_767351" from="765273" to="767351" x1="917162.7662597456" y1="3792436.0639590174" x2="917591.4075915716" y2="3791424.0377963707" />
    <edge id="765273_764781" from="765273" to="764781" x1="917162.7662597456" y1="3792436.0639590174" x2="917698.6885886389" y2="3789220.903368594" />
    <edge id="765273_717502" from="765273" to="717502" x1="917162.7662597456" y1="3792436.0639590174" x2="917239.2436885801" y2="3789738.822319024" />
    <edge id="765273_765265" from="765273" to="765265" x1="917162.7662597456" y1="3792436.0639590174" x2="917222.2494325433" y2="3791971.5464980905" />
    <edge id="716331_773062" from="716331" to="773062" x1="937328.8457444923" y1="3780066.736867394" x2="940071.8594111616" y2="3778371.9661853616" />
    <edge id="716331_716331" from="716331" to="716331" x1="937328.8457444923" y1="3780066.736867394" x2="937328.8457444923" y2="3780066.736867394" />
    <edge id="716331_771667" from="716331" to="771667" x1="937328.8457444923" y1="3780066.736867394" x2="939953.4031854519" y2="3780531.65354422" />
    <edge id="716331_716328" from="716331" to="716328" x1="937328.8457444923" y1="3780066.736867394" x2="938130.8991406919" y2="3779723.492861763" />
    <edge id="716331_773023" from="716331" to="773023" x1="937328.8457444923" y1="3780066.736867394" x2="939146.2205215677" y2="3778779.409216838" />
    <edge id="716331_773024" from="716331" to="773024" x1="937328.8457444923" y1="3780066.736867394" x2="939138.6284024052" y2="3778763.4785455605" />
    <edge id="716331_765182" from="716331" to="765182" x1="937328.8457444923" y1="3780066.736867394" x2="938390.2253871106" y2="3779543.0731582656" />
    <edge id="716331_772513" from="716331" to="772513" x1="937328.8457444923" y1="3780066.736867394" x2="939724.1440070601" y2="3780028.0437556882" />
    <edge id="716331_764853" from="716331" to="764853" x1="937328.8457444923" y1="3780066.736867394" x2="938413.9504027046" y2="3779510.7984502437" />
    <edge id="771667_717445" from="771667" to="717445" x1="939953.4031854519" y1="3780531.65354422" x2="937623.7478193467" y2="3779976.9603467938" />
    <edge id="771667_773062" from="771667" to="773062" x1="939953.4031854519" y1="3780531.65354422" x2="940071.8594111616" y2="3778371.9661853616" />
    <edge id="771667_771667" from="771667" to="771667" x1="939953.4031854519" y1="3780531.65354422" x2="939953.4031854519" y2="3780531.65354422" />
    <edge id="771667_716941" from="771667" to="716941" x1="939953.4031854519" y1="3780531.65354422" x2="941838.2998212847" y2="3778898.569814848" />
    <edge id="771667_773013" from="771667" to="773013" x1="939953.4031854519" y1="3780531.65354422" x2="941110.4065699046" y2="3781765.2072281404" />
    <edge id="771667_718045" from="771667" to="718045" x1="939953.4031854519" y1="3780531.65354422" x2="939444.1131754079" y2="3779838.0657061916" />
    <edge id="771667_760650" from="771667" to="760650" x1="939953.4031854519" y1="3780531.65354422" x2="940065.446946751" y2="3780749.405252939" />
    <edge id="771667_767750" from="771667" to="767750" x1="939953.4031854519" y1="3780531.65354422" x2="942391.4180303281" y2="3782894.6213444923" />
    <edge id="771667_767751" from="771667" to="767751" x1="939953.4031854519" y1="3780531.65354422" x2="942408.967838482" y2="3782895.446352624" />
    <edge id="771667_773023" from="771667" to="773023" x1="939953.4031854519" y1="3780531.65354422" x2="939146.2205215677" y2="3778779.409216838" />
    <edge id="771667_773024" from="771667" to="773024" x1="939953.4031854519" y1="3780531.65354422" x2="939138.6284024052" y2="3778763.4785455605" />
    <edge id="771667_718371" from="771667" to="718371" x1="939953.4031854519" y1="3780531.65354422" x2="939439.2395160878" y2="3782402.4860437796" />
    <edge id="771667_716953" from="771667" to="716953" x1="939953.4031854519" y1="3780531.65354422" x2="939019.2125485961" y2="3782873.560209315" />
    <edge id="771667_716951" from="771667" to="716951" x1="939953.4031854519" y1="3780531.65354422" x2="940077.9741913552" y2="3781947.2097072154" />
    <edge id="771667_765182" from="771667" to="765182" x1="939953.4031854519" y1="3780531.65354422" x2="938390.2253871106" y2="3779543.0731582656" />
    <edge id="771667_772513" from="771667" to="772513" x1="939953.4031854519" y1="3780531.65354422" x2="939724.1440070601" y2="3780028.0437556882" />
    <edge id="771667_716943" from="771667" to="716943" x1="939953.4031854519" y1="3780531.65354422" x2="941774.1771984859" y2="3779140.353388053" />
    <edge id="771667_772669" from="771667" to="772669" x1="939953.4031854519" y1="3780531.65354422" x2="940438.5443462639" y2="3781126.2368476824" />
    <edge id="771667_771673" from="771667" to="771673" x1="939953.4031854519" y1="3780531.65354422" x2="940406.4916480216" y2="3781079.1185246278" />
    <edge id="716337_717446" from="716337" to="717446" x1="935499.2158013767" y1="3780789.698949959" x2="937020.6488125791" y2="3780203.7467185245" />
    <edge id="716337_716339" from="716337" to="716339" x1="935499.2158013767" y1="3780789.698949959" x2="934932.0515896648" y2="3780862.5056764167" />
    <edge id="716337_716337" from="716337" to="716337" x1="935499.2158013767" y1="3780789.698949959" x2="935499.2158013767" y2="3780789.698949959" />
    <edge id="716337_765164" from="716337" to="765164" x1="935499.2158013767" y1="3780789.698949959" x2="934820.9435576875" y2="3780943.0421091192" />
    <edge id="716337_717469" from="716337" to="717469" x1="935499.2158013767" y1="3780789.698949959" x2="932460.6274219148" y2="3782850.24645881" />
    <edge id="716337_717465" from="716337" to="717465" x1="935499.2158013767" y1="3780789.698949959" x2="932901.7607735388" y2="3782495.6048913016" />
    <edge id="716337_717461" from="716337" to="717461" x1="935499.2158013767" y1="3780789.698949959" x2="933620.4540874282" y2="3781621.9645520495" />
    <edge id="716337_717460" from="716337" to="717460" x1="935499.2158013767" y1="3780789.698949959" x2="933631.7975667316" y2="3781636.950133232" />
    <edge id="716337_717463" from="716337" to="717463" x1="935499.2158013767" y1="3780789.698949959" x2="933213.4032409466" y2="3782099.41730935" />
    <edge id="716337_717459" from="716337" to="717459" x1="935499.2158013767" y1="3780789.698949959" x2="934045.018363802" y2="3781347.81550222" />
    <edge id="716337_717450" from="716337" to="717450" x1="935499.2158013767" y1="3780789.698949959" x2="936272.9877444868" y2="3780554.042583088" />
    <edge id="716337_717453" from="716337" to="717453" x1="935499.2158013767" y1="3780789.698949959" x2="935586.9790180023" y2="3780753.7052243915" />
    <edge id="716337_717456" from="716337" to="717456" x1="935499.2158013767" y1="3780789.698949959" x2="934428.0457669469" y2="3781151.8697156254" />
    <edge id="769953_769953" from="769953" to="769953" x1="942391.9832429001" y1="3795509.5201682793" x2="942391.9832429001" y2="3795509.5201682793" />
    <edge id="769953_769941" from="769953" to="769941" x1="942391.9832429001" y1="3795509.5201682793" x2="942164.5730588022" y2="3795528.830698721" />
    <edge id="769953_769926" from="769953" to="769926" x1="942391.9832429001" y1="3795509.5201682793" x2="939477.4769240814" y2="3796133.4573344844" />
    <edge id="769402_769402" from="769402" to="769402" x1="929989.0797388763" y1="3785390.277213075" x2="929989.0797388763" y2="3785390.277213075" />
    <edge id="769402_769403" from="769402" to="769403" x1="929989.0797388763" y1="3785390.277213075" x2="929974.5004783988" y2="3785365.1356359585" />
    <edge id="769402_769405" from="769402" to="769405" x1="929989.0797388763" y1="3785390.277213075" x2="929434.5388819559" y2="3785964.561395576" />
    <edge id="769402_769418" from="769402" to="769418" x1="929989.0797388763" y1="3785390.277213075" x2="929448.9660706222" y2="3785993.0326087484" />