<edges>
    <edge id="773869_773869" from="773869" to="773869" />
    <edge id="773869_773906" from="773869" to="773906" />
    <edge id="773869_718204" from="773869" to="718204" />
    <edge id="773869_773927" from="773869" to="773927" />
    <edge id="773869_773953" from="773869" to="773953" />
    <edge id="773869_773916" from="773869" to="773916" />
    <edge id="773869_717572" from="773869" to="717572" />
    <edge id="773869_718090" from="773869" to="718090" />
    <edge id="773869_718496" from="773869" to="718496" />
    <edge id="773869_773904" from="773869" to="773904" />
    <edge id="773869_761003" from="773869" to="761003" />
    <edge id="773869_774204" from="773869" to="774204" />
    <edge id="767541_767541" from="767541" to="767541" />
    <edge id="767541_767542" from="767541" to="767542" />
    <edge id="767541_767620" from="767541" to="767620" />
    <edge id="767541_767573" from="767541" to="767573" />
    <edge id="767541_718064" from="767541" to="718064" />
    <edge id="772168_772167" from="772168" to="772167" />
    <edge id="772168_772168" from="772168" to="772168" />
    <edge id="718141_717497" from="718141" to="717497" />
    <edge id="718141_717492" from="718141" to="717492" />
    <edge id="718141_769467" from="718141" to="769467" />
    <edge id="718141_769346" from="718141" to="769346" />
    <edge id="718141_764858" from="718141" to="764858" />
    <edge id="718141_718141" from="718141" to="718141" />
    <edge id="769373_717483" from="769373" to="717483" />
    <edge id="769373_717480" from="769373" to="717480" />
    <edge id="769373_717472" from="769373" to="717472" />
    <edge id="769373_717473" from="769373" to="717473" />
    <edge id="769373_717469" from="769373" to="717469" />
    <edge id="769373_717468" from="769373" to="717468" />
    <edge id="769373_717466" from="769373" to="717466" />
    <edge id="769373_717461" from="769373" to="717461" />
    <edge id="769373_717463" from="769373" to="717463" />
    <edge id="769373_717462" from="769373" to="717462" />
    <edge id="769373_717458" from="769373" to="717458" />
    <edge id="769373_769372" from="769373" to="769372" />
    <edge id="769373_769373" from="769373" to="769373" />
</edges>